data_916
_audit_creation_date              2023-09-08
_audit_creation_method            'Materials Studio'
_symmetry_space_group_name_H-M    'P1'
_symmetry_Int_Tables_number       1
_symmetry_cell_setting            triclinic
loop_
_symmetry_equiv_pos_as_xyz
  x,y,z
_cell_length_a                    95.2459
_cell_length_b                    95.2459
_cell_length_c                    95.2459
_cell_angle_alpha                 90.0000
_cell_angle_beta                  90.0000
_cell_angle_gamma                 90.0000
loop_
_atom_site_label
_atom_site_type_symbol
_atom_site_fract_x
_atom_site_fract_y
_atom_site_fract_z
_atom_site_U_iso_or_equiv
_atom_site_adp_type
_atom_site_occupancy
C1     C     0.27643   0.72864   0.46505   0.00000  Uiso   1.00
C2     C     0.27722   0.71413   0.46428   0.00000  Uiso   1.00
C3     C     0.28441   0.70780   0.45337   0.00000  Uiso   1.00
C4     C     0.29062   0.71585   0.44298   0.00000  Uiso   1.00
C5     C     0.29014   0.73043   0.44400   0.00000  Uiso   1.00
C6     C     0.28309   0.73676   0.45498   0.00000  Uiso   1.00
N7     N     0.29732   0.70893   0.43159   0.00000  Uiso   1.00
C8     C     0.29868   0.71411   0.41920   0.00000  Uiso   1.00
C9     C     0.30547   0.70617   0.40800   0.00000  Uiso   1.00
C10    C     0.30429   0.71085   0.39427   0.00000  Uiso   1.00
C11    C     0.31033   0.70339   0.38340   0.00000  Uiso   1.00
C12    C     0.31785   0.69114   0.38605   0.00000  Uiso   1.00
C13    C     0.31915   0.68656   0.39986   0.00000  Uiso   1.00
C14    C     0.31298   0.69396   0.41073   0.00000  Uiso   1.00
C15    C     0.32409   0.68314   0.37439   0.00000  Uiso   1.00
C16    C     0.32968   0.69004   0.36280   0.00000  Uiso   1.00
C17    C     0.33491   0.68255   0.35155   0.00000  Uiso   1.00
C18    C     0.33487   0.66797   0.35168   0.00000  Uiso   1.00
C19    C     0.32960   0.66104   0.36338   0.00000  Uiso   1.00
C20    C     0.32421   0.66853   0.37458   0.00000  Uiso   1.00
C21    C     0.77581   0.22602   0.46508   0.00000  Uiso   1.00
C22    C     0.77022   0.21427   0.45857   0.00000  Uiso   1.00
C23    C     0.77756   0.20758   0.44800   0.00000  Uiso   1.00
C24    C     0.79055   0.21252   0.44371   0.00000  Uiso   1.00
C25    C     0.79626   0.22423   0.45041   0.00000  Uiso   1.00
C26    C     0.78890   0.23091   0.46100   0.00000  Uiso   1.00
N27    N     0.79744   0.20532   0.43259   0.00000  Uiso   1.00
C28    C     0.80874   0.20906   0.42623   0.00000  Uiso   1.00
C29    C     0.81439   0.20065   0.41472   0.00000  Uiso   1.00
C30    C     0.82634   0.20518   0.40774   0.00000  Uiso   1.00
C31    C     0.83168   0.19759   0.39659   0.00000  Uiso   1.00
C32    C     0.82517   0.18529   0.39219   0.00000  Uiso   1.00
C33    C     0.81327   0.18068   0.39930   0.00000  Uiso   1.00
C34    C     0.80793   0.18829   0.41044   0.00000  Uiso   1.00
C35    C     0.83061   0.17742   0.38010   0.00000  Uiso   1.00
C36    C     0.83528   0.18447   0.36820   0.00000  Uiso   1.00
C37    C     0.84012   0.17708   0.35670   0.00000  Uiso   1.00
C38    C     0.84042   0.16250   0.35685   0.00000  Uiso   1.00
C39    C     0.83585   0.15545   0.36876   0.00000  Uiso   1.00
C40    C     0.83097   0.16283   0.38027   0.00000  Uiso   1.00
C41    C     0.27521   0.22596   0.96517   0.00000  Uiso   1.00
C42    C     0.27160   0.21242   0.96122   0.00000  Uiso   1.00
C43    C     0.27896   0.20569   0.95069   0.00000  Uiso   1.00
C44    C     0.29005   0.21229   0.94399   0.00000  Uiso   1.00
C45    C     0.29365   0.22592   0.94797   0.00000  Uiso   1.00
C46    C     0.28629   0.23265   0.95851   0.00000  Uiso   1.00
N47    N     0.29694   0.20498   0.93294   0.00000  Uiso   1.00
C48    C     0.30848   0.20850   0.92689   0.00000  Uiso   1.00
C49    C     0.31410   0.20018   0.91530   0.00000  Uiso   1.00
C50    C     0.32631   0.20451   0.90864   0.00000  Uiso   1.00
C51    C     0.33164   0.19699   0.89743   0.00000  Uiso   1.00
C52    C     0.32487   0.18497   0.89267   0.00000  Uiso   1.00
C53    C     0.31272   0.18057   0.89945   0.00000  Uiso   1.00
C54    C     0.30737   0.18810   0.91064   0.00000  Uiso   1.00
C55    C     0.33032   0.17718   0.88054   0.00000  Uiso   1.00
C56    C     0.33530   0.18430   0.86882   0.00000  Uiso   1.00
C57    C     0.34014   0.17698   0.85726   0.00000  Uiso   1.00
C58    C     0.34014   0.16239   0.85720   0.00000  Uiso   1.00
C59    C     0.33528   0.15527   0.86896   0.00000  Uiso   1.00
C60    C     0.33040   0.16258   0.88051   0.00000  Uiso   1.00
C61    C     0.77574   0.72685   0.96515   0.00000  Uiso   1.00
C62    C     0.76992   0.71529   0.95851   0.00000  Uiso   1.00
C63    C     0.77719   0.70851   0.94794   0.00000  Uiso   1.00
C64    C     0.79032   0.71319   0.94378   0.00000  Uiso   1.00
C65    C     0.79626   0.72469   0.95064   0.00000  Uiso   1.00
C66    C     0.78898   0.73145   0.96122   0.00000  Uiso   1.00
N67    N     0.79713   0.70595   0.93263   0.00000  Uiso   1.00
C68    C     0.80838   0.70972   0.92619   0.00000  Uiso   1.00
C69    C     0.81401   0.70129   0.91469   0.00000  Uiso   1.00
C70    C     0.82595   0.70581   0.90768   0.00000  Uiso   1.00
C71    C     0.83130   0.69818   0.89656   0.00000  Uiso   1.00
C72    C     0.82481   0.68585   0.89222   0.00000  Uiso   1.00
C73    C     0.81292   0.68126   0.89933   0.00000  Uiso   1.00
C74    C     0.80757   0.68890   0.91045   0.00000  Uiso   1.00
C75    C     0.83029   0.67792   0.88019   0.00000  Uiso   1.00
C76    C     0.83507   0.68488   0.86828   0.00000  Uiso   1.00
C77    C     0.84000   0.67743   0.85686   0.00000  Uiso   1.00
C78    C     0.84029   0.66286   0.85709   0.00000  Uiso   1.00
C79    C     0.83559   0.65588   0.86900   0.00000  Uiso   1.00
C80    C     0.83064   0.66332   0.88043   0.00000  Uiso   1.00
C81    C     0.26170   0.45986   0.75148   0.00000  Uiso   1.00
C82    C     0.26149   0.47316   0.74597   0.00000  Uiso   1.00
N83    N     0.25433   0.48166   0.75454   0.00000  Uiso   1.00
C84    C     0.24686   0.47316   0.76282   0.00000  Uiso   1.00
C85    C     0.25232   0.45984   0.76220   0.00000  Uiso   1.00
C86    C     0.23330   0.47610   0.76785   0.00000  Uiso   1.00
C87    C     0.22620   0.48883   0.76563   0.00000  Uiso   1.00
C88    C     0.21471   0.50712   0.77333   0.00000  Uiso   1.00
C89    C     0.26460   0.47611   0.73185   0.00000  Uiso   1.00
C90    C     0.26148   0.48885   0.72514   0.00000  Uiso   1.00
C91    C     0.26739   0.49287   0.71263   0.00000  Uiso   1.00
C92    C     0.75339   0.04017   0.23730   0.00000  Uiso   1.00
C93    C     0.74798   0.02683   0.23680   0.00000  Uiso   1.00
N94    N     0.75572   0.01833   0.24484   0.00000  Uiso   1.00
C95    C     0.76314   0.02683   0.25319   0.00000  Uiso   1.00
C96    C     0.76306   0.04017   0.24775   0.00000  Uiso   1.00
C97    C     0.76673   0.02387   0.26719   0.00000  Uiso   1.00
C98    C     0.76370   0.01116   0.27403   0.00000  Uiso   1.00
C99    C     0.77011   0.99288   0.28629   0.00000  Uiso   1.00
C100   C     0.73429   0.02388   0.23214   0.00000  Uiso   1.00
C101   C     0.72724   0.01116   0.23459   0.00000  Uiso   1.00
C102   C     0.71554   0.00712   0.22723   0.00000  Uiso   1.00
N103   N     0.84517   0.15487   0.34484   0.00000  Uiso   1.00
H104   H     0.27215   0.70776   0.47204   0.00000  Uiso   1.00
H105   H     0.28483   0.69658   0.45280   0.00000  Uiso   1.00
H106   H     0.29524   0.73695   0.43641   0.00000  Uiso   1.00
H107   H     0.28261   0.74798   0.45553   0.00000  Uiso   1.00
H108   H     0.29413   0.72408   0.41668   0.00000  Uiso   1.00
H109   H     0.29849   0.72019   0.39191   0.00000  Uiso   1.00
H110   H     0.30886   0.70709   0.37290   0.00000  Uiso   1.00
H111   H     0.32505   0.67730   0.40230   0.00000  Uiso   1.00
H112   H     0.31414   0.69017   0.42125   0.00000  Uiso   1.00
H113   H     0.33001   0.70127   0.36239   0.00000  Uiso   1.00
H114   H     0.33883   0.68817   0.34263   0.00000  Uiso   1.00
H115   H     0.32949   0.64981   0.36375   0.00000  Uiso   1.00
H116   H     0.31982   0.66286   0.38322   0.00000  Uiso   1.00
H117   H     0.76012   0.21036   0.46162   0.00000  Uiso   1.00
H118   H     0.77306   0.19857   0.44302   0.00000  Uiso   1.00
H119   H     0.80633   0.22830   0.44766   0.00000  Uiso   1.00
H120   H     0.79338   0.23993   0.46601   0.00000  Uiso   1.00
H121   H     0.81405   0.21856   0.42895   0.00000  Uiso   1.00
H122   H     0.83153   0.21466   0.41088   0.00000  Uiso   1.00
H123   H     0.84096   0.20131   0.39144   0.00000  Uiso   1.00
H124   H     0.80792   0.17135   0.39605   0.00000  Uiso   1.00
H125   H     0.79867   0.18454   0.41560   0.00000  Uiso   1.00
H126   H     0.83493   0.19569   0.36768   0.00000  Uiso   1.00
H127   H     0.84344   0.18274   0.34757   0.00000  Uiso   1.00
H128   H     0.83610   0.14422   0.36915   0.00000  Uiso   1.00
H129   H     0.82761   0.15713   0.38935   0.00000  Uiso   1.00
H130   H     0.26305   0.20713   0.96625   0.00000  Uiso   1.00
H131   H     0.27599   0.19527   0.94768   0.00000  Uiso   1.00
H132   H     0.30189   0.23156   0.94288   0.00000  Uiso   1.00
H133   H     0.28910   0.24315   0.96139   0.00000  Uiso   1.00
H134   H     0.31423   0.21756   0.93020   0.00000  Uiso   1.00
H135   H     0.33170   0.21377   0.91207   0.00000  Uiso   1.00
H136   H     0.34112   0.20054   0.89252   0.00000  Uiso   1.00
H137   H     0.30719   0.17144   0.89591   0.00000  Uiso   1.00
H138   H     0.29792   0.18450   0.91555   0.00000  Uiso   1.00
H139   H     0.33518   0.19553   0.86845   0.00000  Uiso   1.00
H140   H     0.34367   0.18270   0.84825   0.00000  Uiso   1.00
H141   H     0.33531   0.14403   0.86919   0.00000  Uiso   1.00
H142   H     0.32679   0.15682   0.88946   0.00000  Uiso   1.00
H143   H     0.75971   0.71160   0.96145   0.00000  Uiso   1.00
H144   H     0.77252   0.69965   0.94284   0.00000  Uiso   1.00
H145   H     0.80647   0.72850   0.94803   0.00000  Uiso   1.00
H146   H     0.79364   0.74031   0.96634   0.00000  Uiso   1.00
H147   H     0.81364   0.71927   0.92882   0.00000  Uiso   1.00
H148   H     0.83113   0.71530   0.91079   0.00000  Uiso   1.00
H149   H     0.84058   0.70189   0.89141   0.00000  Uiso   1.00
H150   H     0.80759   0.67190   0.89612   0.00000  Uiso   1.00
H151   H     0.79832   0.68516   0.91563   0.00000  Uiso   1.00
H152   H     0.83473   0.69610   0.86768   0.00000  Uiso   1.00
H153   H     0.84340   0.68303   0.84772   0.00000  Uiso   1.00
H154   H     0.83582   0.64465   0.86944   0.00000  Uiso   1.00
H155   H     0.82722   0.65767   0.88952   0.00000  Uiso   1.00
H156   H     0.26617   0.45063   0.74688   0.00000  Uiso   1.00
H157   H     0.24833   0.45058   0.76716   0.00000  Uiso   1.00
H158   H     0.20852   0.51350   0.78020   0.00000  Uiso   1.00
H159   H     0.27317   0.48645   0.70544   0.00000  Uiso   1.00
H160   H     0.74919   0.04944   0.23253   0.00000  Uiso   1.00
H161   H     0.76751   0.04943   0.25231   0.00000  Uiso   1.00
H162   H     0.77629   0.98650   0.29318   0.00000  Uiso   1.00
H163   H     0.70915   0.01350   0.22054   0.00000  Uiso   1.00
C164   C     0.72357   0.27136   0.46505   0.00000  Uiso   1.00
C165   C     0.72278   0.28587   0.46428   0.00000  Uiso   1.00
C166   C     0.71559   0.29220   0.45337   0.00000  Uiso   1.00
C167   C     0.70938   0.28415   0.44298   0.00000  Uiso   1.00
C168   C     0.70986   0.26957   0.44400   0.00000  Uiso   1.00
C169   C     0.71691   0.26324   0.45498   0.00000  Uiso   1.00
N170   N     0.70268   0.29107   0.43159   0.00000  Uiso   1.00
C171   C     0.70132   0.28589   0.41920   0.00000  Uiso   1.00
C172   C     0.69453   0.29383   0.40800   0.00000  Uiso   1.00
C173   C     0.69571   0.28915   0.39427   0.00000  Uiso   1.00
C174   C     0.68967   0.29661   0.38340   0.00000  Uiso   1.00
C175   C     0.68215   0.30886   0.38605   0.00000  Uiso   1.00
C176   C     0.68085   0.31344   0.39986   0.00000  Uiso   1.00
C177   C     0.68702   0.30604   0.41073   0.00000  Uiso   1.00
C178   C     0.67591   0.31686   0.37439   0.00000  Uiso   1.00
C179   C     0.67032   0.30996   0.36280   0.00000  Uiso   1.00
C180   C     0.66509   0.31745   0.35155   0.00000  Uiso   1.00
C181   C     0.66513   0.33203   0.35168   0.00000  Uiso   1.00
C182   C     0.67040   0.33896   0.36338   0.00000  Uiso   1.00
C183   C     0.67579   0.33147   0.37458   0.00000  Uiso   1.00
C184   C     0.22419   0.77398   0.46508   0.00000  Uiso   1.00
C185   C     0.22978   0.78573   0.45857   0.00000  Uiso   1.00
C186   C     0.22244   0.79242   0.44800   0.00000  Uiso   1.00
C187   C     0.20945   0.78748   0.44371   0.00000  Uiso   1.00
C188   C     0.20374   0.77577   0.45041   0.00000  Uiso   1.00
C189   C     0.21110   0.76909   0.46100   0.00000  Uiso   1.00
N190   N     0.20256   0.79468   0.43259   0.00000  Uiso   1.00
C191   C     0.19126   0.79094   0.42623   0.00000  Uiso   1.00
C192   C     0.18561   0.79935   0.41472   0.00000  Uiso   1.00
C193   C     0.17366   0.79482   0.40774   0.00000  Uiso   1.00
C194   C     0.16832   0.80241   0.39659   0.00000  Uiso   1.00
C195   C     0.17483   0.81471   0.39219   0.00000  Uiso   1.00
C196   C     0.18673   0.81932   0.39930   0.00000  Uiso   1.00
C197   C     0.19207   0.81171   0.41044   0.00000  Uiso   1.00
C198   C     0.16939   0.82258   0.38010   0.00000  Uiso   1.00
C199   C     0.16472   0.81553   0.36820   0.00000  Uiso   1.00
C200   C     0.15988   0.82292   0.35670   0.00000  Uiso   1.00
C201   C     0.15958   0.83750   0.35685   0.00000  Uiso   1.00
C202   C     0.16415   0.84455   0.36876   0.00000  Uiso   1.00
C203   C     0.16903   0.83717   0.38027   0.00000  Uiso   1.00
C204   C     0.72479   0.77404   0.96517   0.00000  Uiso   1.00
C205   C     0.72840   0.78758   0.96122   0.00000  Uiso   1.00
C206   C     0.72104   0.79431   0.95069   0.00000  Uiso   1.00
C207   C     0.70995   0.78771   0.94399   0.00000  Uiso   1.00
C208   C     0.70635   0.77408   0.94797   0.00000  Uiso   1.00
C209   C     0.71371   0.76735   0.95851   0.00000  Uiso   1.00
N210   N     0.70306   0.79502   0.93294   0.00000  Uiso   1.00
C211   C     0.69152   0.79150   0.92689   0.00000  Uiso   1.00
C212   C     0.68590   0.79982   0.91530   0.00000  Uiso   1.00
C213   C     0.67369   0.79549   0.90864   0.00000  Uiso   1.00
C214   C     0.66836   0.80301   0.89743   0.00000  Uiso   1.00
C215   C     0.67513   0.81503   0.89267   0.00000  Uiso   1.00
C216   C     0.68728   0.81943   0.89945   0.00000  Uiso   1.00
C217   C     0.69263   0.81190   0.91064   0.00000  Uiso   1.00
C218   C     0.66968   0.82282   0.88054   0.00000  Uiso   1.00
C219   C     0.66470   0.81570   0.86882   0.00000  Uiso   1.00
C220   C     0.65986   0.82302   0.85726   0.00000  Uiso   1.00
C221   C     0.65986   0.83761   0.85720   0.00000  Uiso   1.00
C222   C     0.66472   0.84473   0.86896   0.00000  Uiso   1.00
C223   C     0.66960   0.83742   0.88051   0.00000  Uiso   1.00
C224   C     0.22426   0.27315   0.96515   0.00000  Uiso   1.00
C225   C     0.23008   0.28471   0.95851   0.00000  Uiso   1.00
C226   C     0.22281   0.29149   0.94794   0.00000  Uiso   1.00
C227   C     0.20968   0.28681   0.94378   0.00000  Uiso   1.00
C228   C     0.20374   0.27531   0.95064   0.00000  Uiso   1.00
C229   C     0.21102   0.26855   0.96122   0.00000  Uiso   1.00
N230   N     0.20287   0.29405   0.93263   0.00000  Uiso   1.00
C231   C     0.19162   0.29028   0.92619   0.00000  Uiso   1.00
C232   C     0.18599   0.29871   0.91469   0.00000  Uiso   1.00
C233   C     0.17405   0.29419   0.90768   0.00000  Uiso   1.00
C234   C     0.16870   0.30182   0.89656   0.00000  Uiso   1.00
C235   C     0.17519   0.31415   0.89222   0.00000  Uiso   1.00
C236   C     0.18708   0.31874   0.89933   0.00000  Uiso   1.00
C237   C     0.19243   0.31110   0.91045   0.00000  Uiso   1.00
C238   C     0.16971   0.32208   0.88019   0.00000  Uiso   1.00
C239   C     0.16493   0.31512   0.86828   0.00000  Uiso   1.00
C240   C     0.16000   0.32257   0.85686   0.00000  Uiso   1.00
C241   C     0.15971   0.33714   0.85709   0.00000  Uiso   1.00
C242   C     0.16441   0.34412   0.86900   0.00000  Uiso   1.00
C243   C     0.16936   0.33668   0.88043   0.00000  Uiso   1.00
C244   C     0.73830   0.54014   0.75148   0.00000  Uiso   1.00
C245   C     0.73851   0.52684   0.74597   0.00000  Uiso   1.00
N246   N     0.74567   0.51834   0.75454   0.00000  Uiso   1.00
C247   C     0.75314   0.52684   0.76282   0.00000  Uiso   1.00
C248   C     0.74768   0.54016   0.76220   0.00000  Uiso   1.00
C249   C     0.76670   0.52390   0.76785   0.00000  Uiso   1.00
C250   C     0.77380   0.51117   0.76563   0.00000  Uiso   1.00
C251   C     0.78529   0.49288   0.77333   0.00000  Uiso   1.00
C252   C     0.73540   0.52389   0.73185   0.00000  Uiso   1.00
C253   C     0.73852   0.51115   0.72514   0.00000  Uiso   1.00
C254   C     0.73261   0.50713   0.71263   0.00000  Uiso   1.00
C255   C     0.24661   0.95983   0.23730   0.00000  Uiso   1.00
C256   C     0.25202   0.97317   0.23680   0.00000  Uiso   1.00
N257   N     0.24428   0.98167   0.24484   0.00000  Uiso   1.00
C258   C     0.23686   0.97317   0.25319   0.00000  Uiso   1.00
C259   C     0.23694   0.95983   0.24775   0.00000  Uiso   1.00
C260   C     0.23327   0.97613   0.26719   0.00000  Uiso   1.00
C261   C     0.23630   0.98884   0.27403   0.00000  Uiso   1.00
C262   C     0.22989   0.00712   0.28629   0.00000  Uiso   1.00
C263   C     0.26571   0.97612   0.23214   0.00000  Uiso   1.00
C264   C     0.27276   0.98884   0.23459   0.00000  Uiso   1.00
C265   C     0.28446   0.99288   0.22723   0.00000  Uiso   1.00
N266   N     0.15483   0.84513   0.34484   0.00000  Uiso   1.00
H267   H     0.72785   0.29224   0.47204   0.00000  Uiso   1.00
H268   H     0.71517   0.30342   0.45280   0.00000  Uiso   1.00
H269   H     0.70476   0.26305   0.43641   0.00000  Uiso   1.00
H270   H     0.71739   0.25202   0.45553   0.00000  Uiso   1.00
H271   H     0.70587   0.27592   0.41668   0.00000  Uiso   1.00
H272   H     0.70151   0.27981   0.39191   0.00000  Uiso   1.00
H273   H     0.69114   0.29291   0.37290   0.00000  Uiso   1.00
H274   H     0.67495   0.32270   0.40230   0.00000  Uiso   1.00
H275   H     0.68586   0.30983   0.42125   0.00000  Uiso   1.00
H276   H     0.66999   0.29873   0.36239   0.00000  Uiso   1.00
H277   H     0.66117   0.31183   0.34263   0.00000  Uiso   1.00
H278   H     0.67051   0.35019   0.36375   0.00000  Uiso   1.00
H279   H     0.68018   0.33714   0.38322   0.00000  Uiso   1.00
H280   H     0.23988   0.78964   0.46162   0.00000  Uiso   1.00
H281   H     0.22694   0.80143   0.44302   0.00000  Uiso   1.00
H282   H     0.19367   0.77170   0.44766   0.00000  Uiso   1.00
H283   H     0.20662   0.76007   0.46601   0.00000  Uiso   1.00
H284   H     0.18595   0.78144   0.42895   0.00000  Uiso   1.00
H285   H     0.16847   0.78534   0.41088   0.00000  Uiso   1.00
H286   H     0.15904   0.79869   0.39144   0.00000  Uiso   1.00
H287   H     0.19208   0.82865   0.39605   0.00000  Uiso   1.00
H288   H     0.20133   0.81546   0.41560   0.00000  Uiso   1.00
H289   H     0.16507   0.80431   0.36768   0.00000  Uiso   1.00
H290   H     0.15656   0.81726   0.34757   0.00000  Uiso   1.00
H291   H     0.16390   0.85578   0.36915   0.00000  Uiso   1.00
H292   H     0.17239   0.84287   0.38935   0.00000  Uiso   1.00
H293   H     0.73695   0.79287   0.96625   0.00000  Uiso   1.00
H294   H     0.72401   0.80473   0.94768   0.00000  Uiso   1.00
H295   H     0.69811   0.76844   0.94288   0.00000  Uiso   1.00
H296   H     0.71090   0.75685   0.96139   0.00000  Uiso   1.00
H297   H     0.68577   0.78244   0.93020   0.00000  Uiso   1.00
H298   H     0.66830   0.78623   0.91207   0.00000  Uiso   1.00
H299   H     0.65888   0.79946   0.89252   0.00000  Uiso   1.00
H300   H     0.69281   0.82856   0.89591   0.00000  Uiso   1.00
H301   H     0.70208   0.81550   0.91555   0.00000  Uiso   1.00
H302   H     0.66482   0.80447   0.86845   0.00000  Uiso   1.00
H303   H     0.65633   0.81730   0.84825   0.00000  Uiso   1.00
H304   H     0.66469   0.85597   0.86919   0.00000  Uiso   1.00
H305   H     0.67321   0.84318   0.88946   0.00000  Uiso   1.00
H306   H     0.24029   0.28840   0.96145   0.00000  Uiso   1.00
H307   H     0.22748   0.30035   0.94284   0.00000  Uiso   1.00
H308   H     0.19353   0.27150   0.94803   0.00000  Uiso   1.00
H309   H     0.20636   0.25969   0.96634   0.00000  Uiso   1.00
H310   H     0.18636   0.28073   0.92882   0.00000  Uiso   1.00
H311   H     0.16887   0.28470   0.91079   0.00000  Uiso   1.00
H312   H     0.15942   0.29811   0.89141   0.00000  Uiso   1.00
H313   H     0.19241   0.32810   0.89612   0.00000  Uiso   1.00
H314   H     0.20168   0.31484   0.91563   0.00000  Uiso   1.00
H315   H     0.16527   0.30390   0.86768   0.00000  Uiso   1.00
H316   H     0.15660   0.31697   0.84772   0.00000  Uiso   1.00
H317   H     0.16418   0.35535   0.86944   0.00000  Uiso   1.00
H318   H     0.17278   0.34233   0.88952   0.00000  Uiso   1.00
H319   H     0.73383   0.54937   0.74688   0.00000  Uiso   1.00
H320   H     0.75167   0.54942   0.76716   0.00000  Uiso   1.00
H321   H     0.79148   0.48650   0.78020   0.00000  Uiso   1.00
H322   H     0.72683   0.51355   0.70544   0.00000  Uiso   1.00
H323   H     0.25081   0.95056   0.23253   0.00000  Uiso   1.00
H324   H     0.23249   0.95057   0.25231   0.00000  Uiso   1.00
H325   H     0.22371   0.01350   0.29318   0.00000  Uiso   1.00
H326   H     0.29085   0.98650   0.22054   0.00000  Uiso   1.00
C327   C     0.72357   0.72864   0.53495   0.00000  Uiso   1.00
C328   C     0.72278   0.71413   0.53572   0.00000  Uiso   1.00
C329   C     0.71559   0.70780   0.54663   0.00000  Uiso   1.00
C330   C     0.70938   0.71585   0.55702   0.00000  Uiso   1.00
C331   C     0.70986   0.73043   0.55600   0.00000  Uiso   1.00
C332   C     0.71691   0.73676   0.54502   0.00000  Uiso   1.00
N333   N     0.70268   0.70893   0.56841   0.00000  Uiso   1.00
C334   C     0.70132   0.71411   0.58080   0.00000  Uiso   1.00
C335   C     0.69453   0.70617   0.59200   0.00000  Uiso   1.00
C336   C     0.69571   0.71085   0.60573   0.00000  Uiso   1.00
C337   C     0.68967   0.70339   0.61660   0.00000  Uiso   1.00
C338   C     0.68215   0.69114   0.61395   0.00000  Uiso   1.00
C339   C     0.68085   0.68656   0.60014   0.00000  Uiso   1.00
C340   C     0.68702   0.69396   0.58927   0.00000  Uiso   1.00
C341   C     0.67591   0.68314   0.62561   0.00000  Uiso   1.00
C342   C     0.67032   0.69004   0.63720   0.00000  Uiso   1.00
C343   C     0.66509   0.68255   0.64845   0.00000  Uiso   1.00
C344   C     0.66513   0.66797   0.64832   0.00000  Uiso   1.00
C345   C     0.67040   0.66104   0.63662   0.00000  Uiso   1.00
C346   C     0.67579   0.66853   0.62542   0.00000  Uiso   1.00
C347   C     0.22419   0.22602   0.53492   0.00000  Uiso   1.00
C348   C     0.22978   0.21427   0.54143   0.00000  Uiso   1.00
C349   C     0.22244   0.20758   0.55200   0.00000  Uiso   1.00
C350   C     0.20945   0.21252   0.55629   0.00000  Uiso   1.00
C351   C     0.20374   0.22423   0.54959   0.00000  Uiso   1.00
C352   C     0.21110   0.23091   0.53900   0.00000  Uiso   1.00
N353   N     0.20256   0.20532   0.56741   0.00000  Uiso   1.00
C354   C     0.19126   0.20906   0.57377   0.00000  Uiso   1.00
C355   C     0.18561   0.20065   0.58528   0.00000  Uiso   1.00
C356   C     0.17366   0.20518   0.59226   0.00000  Uiso   1.00
C357   C     0.16832   0.19759   0.60341   0.00000  Uiso   1.00
C358   C     0.17483   0.18529   0.60781   0.00000  Uiso   1.00
C359   C     0.18673   0.18068   0.60070   0.00000  Uiso   1.00
C360   C     0.19207   0.18829   0.58956   0.00000  Uiso   1.00
C361   C     0.16939   0.17742   0.61990   0.00000  Uiso   1.00
C362   C     0.16472   0.18447   0.63180   0.00000  Uiso   1.00
C363   C     0.15988   0.17708   0.64330   0.00000  Uiso   1.00
C364   C     0.15958   0.16250   0.64315   0.00000  Uiso   1.00
C365   C     0.16415   0.15545   0.63124   0.00000  Uiso   1.00
C366   C     0.16903   0.16283   0.61973   0.00000  Uiso   1.00
C367   C     0.72479   0.22596   0.03483   0.00000  Uiso   1.00
C368   C     0.72840   0.21242   0.03878   0.00000  Uiso   1.00
C369   C     0.72104   0.20569   0.04931   0.00000  Uiso   1.00
C370   C     0.70995   0.21229   0.05601   0.00000  Uiso   1.00
C371   C     0.70635   0.22592   0.05203   0.00000  Uiso   1.00
C372   C     0.71371   0.23265   0.04149   0.00000  Uiso   1.00
N373   N     0.70306   0.20498   0.06706   0.00000  Uiso   1.00
C374   C     0.69152   0.20850   0.07311   0.00000  Uiso   1.00
C375   C     0.68590   0.20018   0.08470   0.00000  Uiso   1.00
C376   C     0.67369   0.20451   0.09136   0.00000  Uiso   1.00
C377   C     0.66836   0.19699   0.10257   0.00000  Uiso   1.00
C378   C     0.67513   0.18497   0.10733   0.00000  Uiso   1.00
C379   C     0.68728   0.18057   0.10055   0.00000  Uiso   1.00
C380   C     0.69263   0.18810   0.08936   0.00000  Uiso   1.00
C381   C     0.66968   0.17718   0.11946   0.00000  Uiso   1.00
C382   C     0.66470   0.18430   0.13118   0.00000  Uiso   1.00
C383   C     0.65986   0.17698   0.14274   0.00000  Uiso   1.00
C384   C     0.65986   0.16239   0.14280   0.00000  Uiso   1.00
C385   C     0.66472   0.15527   0.13104   0.00000  Uiso   1.00
C386   C     0.66960   0.16258   0.11949   0.00000  Uiso   1.00
C387   C     0.22426   0.72685   0.03485   0.00000  Uiso   1.00
C388   C     0.23008   0.71529   0.04149   0.00000  Uiso   1.00
C389   C     0.22281   0.70851   0.05206   0.00000  Uiso   1.00
C390   C     0.20968   0.71319   0.05622   0.00000  Uiso   1.00
C391   C     0.20374   0.72469   0.04936   0.00000  Uiso   1.00
C392   C     0.21102   0.73145   0.03878   0.00000  Uiso   1.00
N393   N     0.20287   0.70595   0.06737   0.00000  Uiso   1.00
C394   C     0.19162   0.70972   0.07381   0.00000  Uiso   1.00
C395   C     0.18599   0.70129   0.08531   0.00000  Uiso   1.00
C396   C     0.17405   0.70581   0.09232   0.00000  Uiso   1.00
C397   C     0.16870   0.69818   0.10344   0.00000  Uiso   1.00
C398   C     0.17519   0.68585   0.10778   0.00000  Uiso   1.00
C399   C     0.18708   0.68126   0.10067   0.00000  Uiso   1.00
C400   C     0.19243   0.68890   0.08955   0.00000  Uiso   1.00
C401   C     0.16971   0.67792   0.11981   0.00000  Uiso   1.00
C402   C     0.16493   0.68488   0.13172   0.00000  Uiso   1.00
C403   C     0.16000   0.67743   0.14314   0.00000  Uiso   1.00
C404   C     0.15971   0.66286   0.14291   0.00000  Uiso   1.00
C405   C     0.16441   0.65588   0.13100   0.00000  Uiso   1.00
C406   C     0.16936   0.66332   0.11957   0.00000  Uiso   1.00
C407   C     0.73830   0.45986   0.24852   0.00000  Uiso   1.00
C408   C     0.73851   0.47316   0.25403   0.00000  Uiso   1.00
N409   N     0.74567   0.48166   0.24546   0.00000  Uiso   1.00
C410   C     0.75314   0.47316   0.23718   0.00000  Uiso   1.00
C411   C     0.74768   0.45984   0.23780   0.00000  Uiso   1.00
C412   C     0.76670   0.47610   0.23215   0.00000  Uiso   1.00
C413   C     0.77380   0.48883   0.23437   0.00000  Uiso   1.00
C414   C     0.78529   0.50712   0.22667   0.00000  Uiso   1.00
C415   C     0.73540   0.47611   0.26815   0.00000  Uiso   1.00
C416   C     0.73852   0.48885   0.27486   0.00000  Uiso   1.00
C417   C     0.73261   0.49287   0.28737   0.00000  Uiso   1.00
C418   C     0.24661   0.04017   0.76270   0.00000  Uiso   1.00
C419   C     0.25202   0.02683   0.76320   0.00000  Uiso   1.00
N420   N     0.24428   0.01833   0.75516   0.00000  Uiso   1.00
C421   C     0.23686   0.02683   0.74681   0.00000  Uiso   1.00
C422   C     0.23694   0.04017   0.75225   0.00000  Uiso   1.00
C423   C     0.23327   0.02387   0.73281   0.00000  Uiso   1.00
C424   C     0.23630   0.01116   0.72597   0.00000  Uiso   1.00
C425   C     0.22989   0.99288   0.71371   0.00000  Uiso   1.00
C426   C     0.26571   0.02388   0.76786   0.00000  Uiso   1.00
C427   C     0.27276   0.01116   0.76541   0.00000  Uiso   1.00
C428   C     0.28446   0.00712   0.77277   0.00000  Uiso   1.00
N429   N     0.15483   0.15487   0.65516   0.00000  Uiso   1.00
H430   H     0.72785   0.70776   0.52796   0.00000  Uiso   1.00
H431   H     0.71517   0.69658   0.54720   0.00000  Uiso   1.00
H432   H     0.70476   0.73695   0.56359   0.00000  Uiso   1.00
H433   H     0.71739   0.74798   0.54447   0.00000  Uiso   1.00
H434   H     0.70587   0.72408   0.58332   0.00000  Uiso   1.00
H435   H     0.70151   0.72019   0.60809   0.00000  Uiso   1.00
H436   H     0.69114   0.70709   0.62710   0.00000  Uiso   1.00
H437   H     0.67495   0.67730   0.59770   0.00000  Uiso   1.00
H438   H     0.68586   0.69017   0.57875   0.00000  Uiso   1.00
H439   H     0.66999   0.70127   0.63761   0.00000  Uiso   1.00
H440   H     0.66117   0.68817   0.65737   0.00000  Uiso   1.00
H441   H     0.67051   0.64981   0.63625   0.00000  Uiso   1.00
H442   H     0.68018   0.66286   0.61678   0.00000  Uiso   1.00
H443   H     0.23988   0.21036   0.53838   0.00000  Uiso   1.00
H444   H     0.22694   0.19857   0.55698   0.00000  Uiso   1.00
H445   H     0.19367   0.22830   0.55234   0.00000  Uiso   1.00
H446   H     0.20662   0.23993   0.53399   0.00000  Uiso   1.00
H447   H     0.18595   0.21856   0.57105   0.00000  Uiso   1.00
H448   H     0.16847   0.21466   0.58912   0.00000  Uiso   1.00
H449   H     0.15904   0.20131   0.60856   0.00000  Uiso   1.00
H450   H     0.19208   0.17135   0.60395   0.00000  Uiso   1.00
H451   H     0.20133   0.18454   0.58440   0.00000  Uiso   1.00
H452   H     0.16507   0.19569   0.63232   0.00000  Uiso   1.00
H453   H     0.15656   0.18274   0.65243   0.00000  Uiso   1.00
H454   H     0.16390   0.14422   0.63085   0.00000  Uiso   1.00
H455   H     0.17239   0.15713   0.61065   0.00000  Uiso   1.00
H456   H     0.73695   0.20713   0.03375   0.00000  Uiso   1.00
H457   H     0.72401   0.19527   0.05232   0.00000  Uiso   1.00
H458   H     0.69811   0.23156   0.05712   0.00000  Uiso   1.00
H459   H     0.71090   0.24315   0.03861   0.00000  Uiso   1.00
H460   H     0.68577   0.21756   0.06980   0.00000  Uiso   1.00
H461   H     0.66830   0.21377   0.08793   0.00000  Uiso   1.00
H462   H     0.65888   0.20054   0.10748   0.00000  Uiso   1.00
H463   H     0.69281   0.17144   0.10409   0.00000  Uiso   1.00
H464   H     0.70208   0.18450   0.08445   0.00000  Uiso   1.00
H465   H     0.66482   0.19553   0.13155   0.00000  Uiso   1.00
H466   H     0.65633   0.18270   0.15175   0.00000  Uiso   1.00
H467   H     0.66469   0.14403   0.13081   0.00000  Uiso   1.00
H468   H     0.67321   0.15682   0.11054   0.00000  Uiso   1.00
H469   H     0.24029   0.71160   0.03855   0.00000  Uiso   1.00
H470   H     0.22748   0.69965   0.05716   0.00000  Uiso   1.00
H471   H     0.19353   0.72850   0.05197   0.00000  Uiso   1.00
H472   H     0.20636   0.74031   0.03366   0.00000  Uiso   1.00
H473   H     0.18636   0.71927   0.07118   0.00000  Uiso   1.00
H474   H     0.16887   0.71530   0.08921   0.00000  Uiso   1.00
H475   H     0.15942   0.70189   0.10859   0.00000  Uiso   1.00
H476   H     0.19241   0.67190   0.10388   0.00000  Uiso   1.00
H477   H     0.20168   0.68516   0.08437   0.00000  Uiso   1.00
H478   H     0.16527   0.69610   0.13232   0.00000  Uiso   1.00
H479   H     0.15660   0.68303   0.15228   0.00000  Uiso   1.00
H480   H     0.16418   0.64465   0.13056   0.00000  Uiso   1.00
H481   H     0.17278   0.65767   0.11048   0.00000  Uiso   1.00
H482   H     0.73383   0.45063   0.25312   0.00000  Uiso   1.00
H483   H     0.75167   0.45058   0.23284   0.00000  Uiso   1.00
H484   H     0.79148   0.51350   0.21980   0.00000  Uiso   1.00
H485   H     0.72683   0.48645   0.29456   0.00000  Uiso   1.00
H486   H     0.25081   0.04944   0.76747   0.00000  Uiso   1.00
H487   H     0.23249   0.04943   0.74769   0.00000  Uiso   1.00
H488   H     0.22371   0.98650   0.70682   0.00000  Uiso   1.00
H489   H     0.29085   0.01350   0.77946   0.00000  Uiso   1.00
C490   C     0.27643   0.27136   0.53495   0.00000  Uiso   1.00
C491   C     0.27722   0.28587   0.53572   0.00000  Uiso   1.00
C492   C     0.28441   0.29220   0.54663   0.00000  Uiso   1.00
C493   C     0.29062   0.28415   0.55702   0.00000  Uiso   1.00
C494   C     0.29014   0.26957   0.55600   0.00000  Uiso   1.00
C495   C     0.28309   0.26324   0.54502   0.00000  Uiso   1.00
N496   N     0.29732   0.29107   0.56841   0.00000  Uiso   1.00
C497   C     0.29868   0.28589   0.58080   0.00000  Uiso   1.00
C498   C     0.30547   0.29383   0.59200   0.00000  Uiso   1.00
C499   C     0.30429   0.28915   0.60573   0.00000  Uiso   1.00
C500   C     0.31033   0.29661   0.61660   0.00000  Uiso   1.00
C501   C     0.31785   0.30886   0.61395   0.00000  Uiso   1.00
C502   C     0.31915   0.31344   0.60014   0.00000  Uiso   1.00
C503   C     0.31298   0.30604   0.58927   0.00000  Uiso   1.00
C504   C     0.32409   0.31686   0.62561   0.00000  Uiso   1.00
C505   C     0.32968   0.30996   0.63720   0.00000  Uiso   1.00
C506   C     0.33491   0.31745   0.64845   0.00000  Uiso   1.00
C507   C     0.33487   0.33203   0.64832   0.00000  Uiso   1.00
C508   C     0.32960   0.33896   0.63662   0.00000  Uiso   1.00
C509   C     0.32421   0.33147   0.62542   0.00000  Uiso   1.00
C510   C     0.77581   0.77398   0.53492   0.00000  Uiso   1.00
C511   C     0.77022   0.78573   0.54143   0.00000  Uiso   1.00
C512   C     0.77756   0.79242   0.55200   0.00000  Uiso   1.00
C513   C     0.79055   0.78748   0.55629   0.00000  Uiso   1.00
C514   C     0.79626   0.77577   0.54959   0.00000  Uiso   1.00
C515   C     0.78890   0.76909   0.53900   0.00000  Uiso   1.00
N516   N     0.79744   0.79468   0.56741   0.00000  Uiso   1.00
C517   C     0.80874   0.79094   0.57377   0.00000  Uiso   1.00
C518   C     0.81439   0.79935   0.58528   0.00000  Uiso   1.00
C519   C     0.82634   0.79482   0.59226   0.00000  Uiso   1.00
C520   C     0.83168   0.80241   0.60341   0.00000  Uiso   1.00
C521   C     0.82517   0.81471   0.60781   0.00000  Uiso   1.00
C522   C     0.81327   0.81932   0.60070   0.00000  Uiso   1.00
C523   C     0.80793   0.81171   0.58956   0.00000  Uiso   1.00
C524   C     0.83061   0.82258   0.61990   0.00000  Uiso   1.00
C525   C     0.83528   0.81553   0.63180   0.00000  Uiso   1.00
C526   C     0.84012   0.82292   0.64330   0.00000  Uiso   1.00
C527   C     0.84042   0.83750   0.64315   0.00000  Uiso   1.00
C528   C     0.83585   0.84455   0.63124   0.00000  Uiso   1.00
C529   C     0.83097   0.83717   0.61973   0.00000  Uiso   1.00
C530   C     0.27521   0.77404   0.03483   0.00000  Uiso   1.00
C531   C     0.27160   0.78758   0.03878   0.00000  Uiso   1.00
C532   C     0.27896   0.79431   0.04931   0.00000  Uiso   1.00
C533   C     0.29005   0.78771   0.05601   0.00000  Uiso   1.00
C534   C     0.29365   0.77408   0.05203   0.00000  Uiso   1.00
C535   C     0.28629   0.76735   0.04149   0.00000  Uiso   1.00
N536   N     0.29694   0.79502   0.06706   0.00000  Uiso   1.00
C537   C     0.30848   0.79150   0.07311   0.00000  Uiso   1.00
C538   C     0.31410   0.79982   0.08470   0.00000  Uiso   1.00
C539   C     0.32631   0.79549   0.09136   0.00000  Uiso   1.00
C540   C     0.33164   0.80301   0.10257   0.00000  Uiso   1.00
C541   C     0.32487   0.81503   0.10733   0.00000  Uiso   1.00
C542   C     0.31272   0.81943   0.10055   0.00000  Uiso   1.00
C543   C     0.30737   0.81190   0.08936   0.00000  Uiso   1.00
C544   C     0.33032   0.82282   0.11946   0.00000  Uiso   1.00
C545   C     0.33530   0.81570   0.13118   0.00000  Uiso   1.00
C546   C     0.34014   0.82302   0.14274   0.00000  Uiso   1.00
C547   C     0.34014   0.83761   0.14280   0.00000  Uiso   1.00
C548   C     0.33528   0.84473   0.13104   0.00000  Uiso   1.00
C549   C     0.33040   0.83742   0.11949   0.00000  Uiso   1.00
C550   C     0.77574   0.27315   0.03485   0.00000  Uiso   1.00
C551   C     0.76992   0.28471   0.04149   0.00000  Uiso   1.00
C552   C     0.77719   0.29149   0.05206   0.00000  Uiso   1.00
C553   C     0.79032   0.28681   0.05622   0.00000  Uiso   1.00
C554   C     0.79626   0.27531   0.04936   0.00000  Uiso   1.00
C555   C     0.78898   0.26855   0.03878   0.00000  Uiso   1.00
N556   N     0.79713   0.29405   0.06737   0.00000  Uiso   1.00
C557   C     0.80838   0.29028   0.07381   0.00000  Uiso   1.00
C558   C     0.81401   0.29871   0.08531   0.00000  Uiso   1.00
C559   C     0.82595   0.29419   0.09232   0.00000  Uiso   1.00
C560   C     0.83130   0.30182   0.10344   0.00000  Uiso   1.00
C561   C     0.82481   0.31415   0.10778   0.00000  Uiso   1.00
C562   C     0.81292   0.31874   0.10067   0.00000  Uiso   1.00
C563   C     0.80757   0.31110   0.08955   0.00000  Uiso   1.00
C564   C     0.83029   0.32208   0.11981   0.00000  Uiso   1.00
C565   C     0.83507   0.31512   0.13172   0.00000  Uiso   1.00
C566   C     0.84000   0.32257   0.14314   0.00000  Uiso   1.00
C567   C     0.84029   0.33714   0.14291   0.00000  Uiso   1.00
C568   C     0.83559   0.34412   0.13100   0.00000  Uiso   1.00
C569   C     0.83064   0.33668   0.11957   0.00000  Uiso   1.00
C570   C     0.26170   0.54014   0.24852   0.00000  Uiso   1.00
C571   C     0.26149   0.52684   0.25403   0.00000  Uiso   1.00
N572   N     0.25433   0.51834   0.24546   0.00000  Uiso   1.00
C573   C     0.24686   0.52684   0.23718   0.00000  Uiso   1.00
C574   C     0.25232   0.54016   0.23780   0.00000  Uiso   1.00
C575   C     0.23330   0.52390   0.23215   0.00000  Uiso   1.00
C576   C     0.22620   0.51117   0.23437   0.00000  Uiso   1.00
C577   C     0.21471   0.49288   0.22667   0.00000  Uiso   1.00
C578   C     0.26460   0.52389   0.26815   0.00000  Uiso   1.00
C579   C     0.26148   0.51115   0.27486   0.00000  Uiso   1.00
C580   C     0.26739   0.50713   0.28737   0.00000  Uiso   1.00
C581   C     0.75339   0.95983   0.76270   0.00000  Uiso   1.00
C582   C     0.74798   0.97317   0.76320   0.00000  Uiso   1.00
N583   N     0.75572   0.98167   0.75516   0.00000  Uiso   1.00
C584   C     0.76314   0.97317   0.74681   0.00000  Uiso   1.00
C585   C     0.76306   0.95983   0.75225   0.00000  Uiso   1.00
C586   C     0.76673   0.97613   0.73281   0.00000  Uiso   1.00
C587   C     0.76370   0.98884   0.72597   0.00000  Uiso   1.00
C588   C     0.77011   0.00712   0.71371   0.00000  Uiso   1.00
C589   C     0.73429   0.97612   0.76786   0.00000  Uiso   1.00
C590   C     0.72724   0.98884   0.76541   0.00000  Uiso   1.00
C591   C     0.71554   0.99288   0.77277   0.00000  Uiso   1.00
N592   N     0.84517   0.84513   0.65516   0.00000  Uiso   1.00
H593   H     0.27215   0.29224   0.52796   0.00000  Uiso   1.00
H594   H     0.28483   0.30342   0.54720   0.00000  Uiso   1.00
H595   H     0.29524   0.26305   0.56359   0.00000  Uiso   1.00
H596   H     0.28261   0.25202   0.54447   0.00000  Uiso   1.00
H597   H     0.29413   0.27592   0.58332   0.00000  Uiso   1.00
H598   H     0.29849   0.27981   0.60809   0.00000  Uiso   1.00
H599   H     0.30886   0.29291   0.62710   0.00000  Uiso   1.00
H600   H     0.32505   0.32270   0.59770   0.00000  Uiso   1.00
H601   H     0.31414   0.30983   0.57875   0.00000  Uiso   1.00
H602   H     0.33001   0.29873   0.63761   0.00000  Uiso   1.00
H603   H     0.33883   0.31183   0.65737   0.00000  Uiso   1.00
H604   H     0.32949   0.35019   0.63625   0.00000  Uiso   1.00
H605   H     0.31982   0.33714   0.61678   0.00000  Uiso   1.00
H606   H     0.76012   0.78964   0.53838   0.00000  Uiso   1.00
H607   H     0.77306   0.80143   0.55698   0.00000  Uiso   1.00
H608   H     0.80633   0.77170   0.55234   0.00000  Uiso   1.00
H609   H     0.79338   0.76007   0.53399   0.00000  Uiso   1.00
H610   H     0.81405   0.78144   0.57105   0.00000  Uiso   1.00
H611   H     0.83153   0.78534   0.58912   0.00000  Uiso   1.00
H612   H     0.84096   0.79869   0.60856   0.00000  Uiso   1.00
H613   H     0.80792   0.82865   0.60395   0.00000  Uiso   1.00
H614   H     0.79867   0.81546   0.58440   0.00000  Uiso   1.00
H615   H     0.83493   0.80431   0.63232   0.00000  Uiso   1.00
H616   H     0.84344   0.81726   0.65243   0.00000  Uiso   1.00
H617   H     0.83610   0.85578   0.63085   0.00000  Uiso   1.00
H618   H     0.82761   0.84287   0.61065   0.00000  Uiso   1.00
H619   H     0.26305   0.79287   0.03375   0.00000  Uiso   1.00
H620   H     0.27599   0.80473   0.05232   0.00000  Uiso   1.00
H621   H     0.30189   0.76844   0.05712   0.00000  Uiso   1.00
H622   H     0.28910   0.75685   0.03861   0.00000  Uiso   1.00
H623   H     0.31423   0.78244   0.06980   0.00000  Uiso   1.00
H624   H     0.33170   0.78623   0.08793   0.00000  Uiso   1.00
H625   H     0.34112   0.79946   0.10748   0.00000  Uiso   1.00
H626   H     0.30719   0.82856   0.10409   0.00000  Uiso   1.00
H627   H     0.29792   0.81550   0.08445   0.00000  Uiso   1.00
H628   H     0.33518   0.80447   0.13155   0.00000  Uiso   1.00
H629   H     0.34367   0.81730   0.15175   0.00000  Uiso   1.00
H630   H     0.33531   0.85597   0.13081   0.00000  Uiso   1.00
H631   H     0.32679   0.84318   0.11054   0.00000  Uiso   1.00
H632   H     0.75971   0.28840   0.03855   0.00000  Uiso   1.00
H633   H     0.77252   0.30035   0.05716   0.00000  Uiso   1.00
H634   H     0.80647   0.27150   0.05197   0.00000  Uiso   1.00
H635   H     0.79364   0.25969   0.03366   0.00000  Uiso   1.00
H636   H     0.81364   0.28073   0.07118   0.00000  Uiso   1.00
H637   H     0.83113   0.28470   0.08921   0.00000  Uiso   1.00
H638   H     0.84058   0.29811   0.10859   0.00000  Uiso   1.00
H639   H     0.80759   0.32810   0.10388   0.00000  Uiso   1.00
H640   H     0.79832   0.31484   0.08437   0.00000  Uiso   1.00
H641   H     0.83473   0.30390   0.13232   0.00000  Uiso   1.00
H642   H     0.84340   0.31697   0.15228   0.00000  Uiso   1.00
H643   H     0.83582   0.35535   0.13056   0.00000  Uiso   1.00
H644   H     0.82722   0.34233   0.11048   0.00000  Uiso   1.00
H645   H     0.26617   0.54937   0.25312   0.00000  Uiso   1.00
H646   H     0.24833   0.54942   0.23284   0.00000  Uiso   1.00
H647   H     0.20852   0.48650   0.21980   0.00000  Uiso   1.00
H648   H     0.27317   0.51355   0.29456   0.00000  Uiso   1.00
H649   H     0.74919   0.95056   0.76747   0.00000  Uiso   1.00
H650   H     0.76751   0.95057   0.74769   0.00000  Uiso   1.00
H651   H     0.77629   0.01350   0.70682   0.00000  Uiso   1.00
H652   H     0.70915   0.98650   0.77946   0.00000  Uiso   1.00
C653   C     0.46505   0.27643   0.72864   0.00000  Uiso   1.00
C654   C     0.46428   0.27722   0.71413   0.00000  Uiso   1.00
C655   C     0.45337   0.28441   0.70780   0.00000  Uiso   1.00
C656   C     0.44298   0.29062   0.71585   0.00000  Uiso   1.00
C657   C     0.44400   0.29014   0.73043   0.00000  Uiso   1.00
C658   C     0.45498   0.28309   0.73676   0.00000  Uiso   1.00
N659   N     0.43159   0.29732   0.70893   0.00000  Uiso   1.00
C660   C     0.41920   0.29868   0.71411   0.00000  Uiso   1.00
C661   C     0.40800   0.30547   0.70617   0.00000  Uiso   1.00
C662   C     0.39427   0.30429   0.71085   0.00000  Uiso   1.00
C663   C     0.38340   0.31033   0.70339   0.00000  Uiso   1.00
C664   C     0.38605   0.31785   0.69114   0.00000  Uiso   1.00
C665   C     0.39986   0.31915   0.68656   0.00000  Uiso   1.00
C666   C     0.41073   0.31298   0.69396   0.00000  Uiso   1.00
C667   C     0.37439   0.32409   0.68314   0.00000  Uiso   1.00
C668   C     0.36280   0.32968   0.69004   0.00000  Uiso   1.00
C669   C     0.35155   0.33491   0.68255   0.00000  Uiso   1.00
C670   C     0.35168   0.33487   0.66797   0.00000  Uiso   1.00
C671   C     0.36338   0.32960   0.66104   0.00000  Uiso   1.00
C672   C     0.37458   0.32421   0.66853   0.00000  Uiso   1.00
C673   C     0.46508   0.77581   0.22602   0.00000  Uiso   1.00
C674   C     0.45857   0.77022   0.21427   0.00000  Uiso   1.00
C675   C     0.44800   0.77756   0.20758   0.00000  Uiso   1.00
C676   C     0.44371   0.79055   0.21252   0.00000  Uiso   1.00
C677   C     0.45041   0.79626   0.22423   0.00000  Uiso   1.00
C678   C     0.46100   0.78890   0.23091   0.00000  Uiso   1.00
N679   N     0.43259   0.79744   0.20532   0.00000  Uiso   1.00
C680   C     0.42623   0.80874   0.20906   0.00000  Uiso   1.00
C681   C     0.41472   0.81439   0.20065   0.00000  Uiso   1.00
C682   C     0.40774   0.82634   0.20518   0.00000  Uiso   1.00
C683   C     0.39659   0.83168   0.19759   0.00000  Uiso   1.00
C684   C     0.39219   0.82517   0.18529   0.00000  Uiso   1.00
C685   C     0.39930   0.81327   0.18068   0.00000  Uiso   1.00
C686   C     0.41044   0.80793   0.18829   0.00000  Uiso   1.00
C687   C     0.38010   0.83061   0.17742   0.00000  Uiso   1.00
C688   C     0.36820   0.83528   0.18447   0.00000  Uiso   1.00
C689   C     0.35670   0.84012   0.17708   0.00000  Uiso   1.00
C690   C     0.35685   0.84042   0.16250   0.00000  Uiso   1.00
C691   C     0.36876   0.83585   0.15545   0.00000  Uiso   1.00
C692   C     0.38027   0.83097   0.16283   0.00000  Uiso   1.00
C693   C     0.96517   0.27521   0.22596   0.00000  Uiso   1.00
C694   C     0.96122   0.27160   0.21242   0.00000  Uiso   1.00
C695   C     0.95069   0.27896   0.20569   0.00000  Uiso   1.00
C696   C     0.94399   0.29005   0.21229   0.00000  Uiso   1.00
C697   C     0.94797   0.29365   0.22592   0.00000  Uiso   1.00
C698   C     0.95851   0.28629   0.23265   0.00000  Uiso   1.00
N699   N     0.93294   0.29694   0.20498   0.00000  Uiso   1.00
C700   C     0.92689   0.30848   0.20850   0.00000  Uiso   1.00
C701   C     0.91530   0.31410   0.20018   0.00000  Uiso   1.00
C702   C     0.90864   0.32631   0.20451   0.00000  Uiso   1.00
C703   C     0.89743   0.33164   0.19699   0.00000  Uiso   1.00
C704   C     0.89267   0.32487   0.18497   0.00000  Uiso   1.00
C705   C     0.89945   0.31272   0.18057   0.00000  Uiso   1.00
C706   C     0.91064   0.30737   0.18810   0.00000  Uiso   1.00
C707   C     0.88054   0.33032   0.17718   0.00000  Uiso   1.00
C708   C     0.86882   0.33530   0.18430   0.00000  Uiso   1.00
C709   C     0.85726   0.34014   0.17698   0.00000  Uiso   1.00
C710   C     0.85720   0.34014   0.16239   0.00000  Uiso   1.00
C711   C     0.86896   0.33528   0.15527   0.00000  Uiso   1.00
C712   C     0.88051   0.33040   0.16258   0.00000  Uiso   1.00
C713   C     0.96515   0.77574   0.72685   0.00000  Uiso   1.00
C714   C     0.95851   0.76992   0.71529   0.00000  Uiso   1.00
C715   C     0.94794   0.77719   0.70851   0.00000  Uiso   1.00
C716   C     0.94378   0.79032   0.71319   0.00000  Uiso   1.00
C717   C     0.95064   0.79626   0.72469   0.00000  Uiso   1.00
C718   C     0.96122   0.78898   0.73145   0.00000  Uiso   1.00
N719   N     0.93263   0.79713   0.70595   0.00000  Uiso   1.00
C720   C     0.92619   0.80838   0.70972   0.00000  Uiso   1.00
C721   C     0.91469   0.81401   0.70129   0.00000  Uiso   1.00
C722   C     0.90768   0.82595   0.70581   0.00000  Uiso   1.00
C723   C     0.89656   0.83130   0.69818   0.00000  Uiso   1.00
C724   C     0.89222   0.82481   0.68585   0.00000  Uiso   1.00
C725   C     0.89933   0.81292   0.68126   0.00000  Uiso   1.00
C726   C     0.91045   0.80757   0.68890   0.00000  Uiso   1.00
C727   C     0.88019   0.83029   0.67792   0.00000  Uiso   1.00
C728   C     0.86828   0.83507   0.68488   0.00000  Uiso   1.00
C729   C     0.85686   0.84000   0.67743   0.00000  Uiso   1.00
C730   C     0.85709   0.84029   0.66286   0.00000  Uiso   1.00
C731   C     0.86900   0.83559   0.65588   0.00000  Uiso   1.00
C732   C     0.88043   0.83064   0.66332   0.00000  Uiso   1.00
C733   C     0.75148   0.26170   0.45986   0.00000  Uiso   1.00
C734   C     0.74597   0.26149   0.47316   0.00000  Uiso   1.00
N735   N     0.75454   0.25433   0.48166   0.00000  Uiso   1.00
C736   C     0.76282   0.24686   0.47316   0.00000  Uiso   1.00
C737   C     0.76220   0.25232   0.45984   0.00000  Uiso   1.00
C738   C     0.76785   0.23330   0.47610   0.00000  Uiso   1.00
C739   C     0.76563   0.22620   0.48883   0.00000  Uiso   1.00
C740   C     0.77333   0.21471   0.50712   0.00000  Uiso   1.00
C741   C     0.73185   0.26460   0.47611   0.00000  Uiso   1.00
C742   C     0.72514   0.26148   0.48885   0.00000  Uiso   1.00
C743   C     0.71263   0.26739   0.49287   0.00000  Uiso   1.00
C744   C     0.23730   0.75339   0.04017   0.00000  Uiso   1.00
C745   C     0.23680   0.74798   0.02683   0.00000  Uiso   1.00
N746   N     0.24484   0.75572   0.01833   0.00000  Uiso   1.00
C747   C     0.25319   0.76314   0.02683   0.00000  Uiso   1.00
C748   C     0.24775   0.76306   0.04017   0.00000  Uiso   1.00
C749   C     0.26719   0.76673   0.02387   0.00000  Uiso   1.00
C750   C     0.27403   0.76370   0.01116   0.00000  Uiso   1.00
C751   C     0.28629   0.77011   0.99288   0.00000  Uiso   1.00
C752   C     0.23214   0.73429   0.02388   0.00000  Uiso   1.00
C753   C     0.23459   0.72724   0.01116   0.00000  Uiso   1.00
C754   C     0.22723   0.71554   0.00712   0.00000  Uiso   1.00
N755   N     0.34484   0.84517   0.15487   0.00000  Uiso   1.00
H756   H     0.47204   0.27215   0.70776   0.00000  Uiso   1.00
H757   H     0.45280   0.28483   0.69658   0.00000  Uiso   1.00
H758   H     0.43641   0.29524   0.73695   0.00000  Uiso   1.00
H759   H     0.45553   0.28261   0.74798   0.00000  Uiso   1.00
H760   H     0.41668   0.29413   0.72408   0.00000  Uiso   1.00
H761   H     0.39191   0.29849   0.72019   0.00000  Uiso   1.00
H762   H     0.37290   0.30886   0.70709   0.00000  Uiso   1.00
H763   H     0.40230   0.32505   0.67730   0.00000  Uiso   1.00
H764   H     0.42125   0.31414   0.69017   0.00000  Uiso   1.00
H765   H     0.36239   0.33001   0.70127   0.00000  Uiso   1.00
H766   H     0.34263   0.33883   0.68817   0.00000  Uiso   1.00
H767   H     0.36375   0.32949   0.64981   0.00000  Uiso   1.00
H768   H     0.38322   0.31982   0.66286   0.00000  Uiso   1.00
H769   H     0.46162   0.76012   0.21036   0.00000  Uiso   1.00
H770   H     0.44302   0.77306   0.19857   0.00000  Uiso   1.00
H771   H     0.44766   0.80633   0.22830   0.00000  Uiso   1.00
H772   H     0.46601   0.79338   0.23993   0.00000  Uiso   1.00
H773   H     0.42895   0.81405   0.21856   0.00000  Uiso   1.00
H774   H     0.41088   0.83153   0.21466   0.00000  Uiso   1.00
H775   H     0.39144   0.84096   0.20131   0.00000  Uiso   1.00
H776   H     0.39605   0.80792   0.17135   0.00000  Uiso   1.00
H777   H     0.41560   0.79867   0.18454   0.00000  Uiso   1.00
H778   H     0.36768   0.83493   0.19569   0.00000  Uiso   1.00
H779   H     0.34757   0.84344   0.18274   0.00000  Uiso   1.00
H780   H     0.36915   0.83610   0.14422   0.00000  Uiso   1.00
H781   H     0.38935   0.82761   0.15713   0.00000  Uiso   1.00
H782   H     0.96625   0.26305   0.20713   0.00000  Uiso   1.00
H783   H     0.94768   0.27599   0.19527   0.00000  Uiso   1.00
H784   H     0.94288   0.30189   0.23156   0.00000  Uiso   1.00
H785   H     0.96139   0.28910   0.24315   0.00000  Uiso   1.00
H786   H     0.93020   0.31423   0.21756   0.00000  Uiso   1.00
H787   H     0.91207   0.33170   0.21377   0.00000  Uiso   1.00
H788   H     0.89252   0.34112   0.20054   0.00000  Uiso   1.00
H789   H     0.89591   0.30719   0.17144   0.00000  Uiso   1.00
H790   H     0.91555   0.29792   0.18450   0.00000  Uiso   1.00
H791   H     0.86845   0.33518   0.19553   0.00000  Uiso   1.00
H792   H     0.84825   0.34367   0.18270   0.00000  Uiso   1.00
H793   H     0.86919   0.33531   0.14403   0.00000  Uiso   1.00
H794   H     0.88946   0.32679   0.15682   0.00000  Uiso   1.00
H795   H     0.96145   0.75971   0.71160   0.00000  Uiso   1.00
H796   H     0.94284   0.77252   0.69965   0.00000  Uiso   1.00
H797   H     0.94803   0.80647   0.72850   0.00000  Uiso   1.00
H798   H     0.96634   0.79364   0.74031   0.00000  Uiso   1.00
H799   H     0.92882   0.81364   0.71927   0.00000  Uiso   1.00
H800   H     0.91079   0.83113   0.71530   0.00000  Uiso   1.00
H801   H     0.89141   0.84058   0.70189   0.00000  Uiso   1.00
H802   H     0.89612   0.80759   0.67190   0.00000  Uiso   1.00
H803   H     0.91563   0.79832   0.68516   0.00000  Uiso   1.00
H804   H     0.86768   0.83473   0.69610   0.00000  Uiso   1.00
H805   H     0.84772   0.84340   0.68303   0.00000  Uiso   1.00
H806   H     0.86944   0.83582   0.64465   0.00000  Uiso   1.00
H807   H     0.88952   0.82722   0.65767   0.00000  Uiso   1.00
H808   H     0.74688   0.26617   0.45063   0.00000  Uiso   1.00
H809   H     0.76716   0.24833   0.45058   0.00000  Uiso   1.00
H810   H     0.78020   0.20852   0.51350   0.00000  Uiso   1.00
H811   H     0.70544   0.27317   0.48645   0.00000  Uiso   1.00
H812   H     0.23253   0.74919   0.04944   0.00000  Uiso   1.00
H813   H     0.25231   0.76751   0.04943   0.00000  Uiso   1.00
H814   H     0.29318   0.77629   0.98650   0.00000  Uiso   1.00
H815   H     0.22054   0.70915   0.01350   0.00000  Uiso   1.00
C816   C     0.46505   0.72357   0.27136   0.00000  Uiso   1.00
C817   C     0.46428   0.72278   0.28587   0.00000  Uiso   1.00
C818   C     0.45337   0.71559   0.29220   0.00000  Uiso   1.00
C819   C     0.44298   0.70938   0.28415   0.00000  Uiso   1.00
C820   C     0.44400   0.70986   0.26957   0.00000  Uiso   1.00
C821   C     0.45498   0.71691   0.26324   0.00000  Uiso   1.00
N822   N     0.43159   0.70268   0.29107   0.00000  Uiso   1.00
C823   C     0.41920   0.70132   0.28589   0.00000  Uiso   1.00
C824   C     0.40800   0.69453   0.29383   0.00000  Uiso   1.00
C825   C     0.39427   0.69571   0.28915   0.00000  Uiso   1.00
C826   C     0.38340   0.68967   0.29661   0.00000  Uiso   1.00
C827   C     0.38605   0.68215   0.30886   0.00000  Uiso   1.00
C828   C     0.39986   0.68085   0.31344   0.00000  Uiso   1.00
C829   C     0.41073   0.68702   0.30604   0.00000  Uiso   1.00
C830   C     0.37439   0.67591   0.31686   0.00000  Uiso   1.00
C831   C     0.36280   0.67032   0.30996   0.00000  Uiso   1.00
C832   C     0.35155   0.66509   0.31745   0.00000  Uiso   1.00
C833   C     0.35168   0.66513   0.33203   0.00000  Uiso   1.00
C834   C     0.36338   0.67040   0.33896   0.00000  Uiso   1.00
C835   C     0.37458   0.67579   0.33147   0.00000  Uiso   1.00
C836   C     0.46508   0.22419   0.77398   0.00000  Uiso   1.00
C837   C     0.45857   0.22978   0.78573   0.00000  Uiso   1.00
C838   C     0.44800   0.22244   0.79242   0.00000  Uiso   1.00
C839   C     0.44371   0.20945   0.78748   0.00000  Uiso   1.00
C840   C     0.45041   0.20374   0.77577   0.00000  Uiso   1.00
C841   C     0.46100   0.21110   0.76909   0.00000  Uiso   1.00
N842   N     0.43259   0.20256   0.79468   0.00000  Uiso   1.00
C843   C     0.42623   0.19126   0.79094   0.00000  Uiso   1.00
C844   C     0.41472   0.18561   0.79935   0.00000  Uiso   1.00
C845   C     0.40774   0.17366   0.79482   0.00000  Uiso   1.00
C846   C     0.39659   0.16832   0.80241   0.00000  Uiso   1.00
C847   C     0.39219   0.17483   0.81471   0.00000  Uiso   1.00
C848   C     0.39930   0.18673   0.81932   0.00000  Uiso   1.00
C849   C     0.41044   0.19207   0.81171   0.00000  Uiso   1.00
C850   C     0.38010   0.16939   0.82258   0.00000  Uiso   1.00
C851   C     0.36820   0.16472   0.81553   0.00000  Uiso   1.00
C852   C     0.35670   0.15988   0.82292   0.00000  Uiso   1.00
C853   C     0.35685   0.15958   0.83750   0.00000  Uiso   1.00
C854   C     0.36876   0.16415   0.84455   0.00000  Uiso   1.00
C855   C     0.38027   0.16903   0.83717   0.00000  Uiso   1.00
C856   C     0.96517   0.72479   0.77404   0.00000  Uiso   1.00
C857   C     0.96122   0.72840   0.78758   0.00000  Uiso   1.00
C858   C     0.95069   0.72104   0.79431   0.00000  Uiso   1.00
C859   C     0.94399   0.70995   0.78771   0.00000  Uiso   1.00
C860   C     0.94797   0.70635   0.77408   0.00000  Uiso   1.00
C861   C     0.95851   0.71371   0.76735   0.00000  Uiso   1.00
N862   N     0.93294   0.70306   0.79502   0.00000  Uiso   1.00
C863   C     0.92689   0.69152   0.79150   0.00000  Uiso   1.00
C864   C     0.91530   0.68590   0.79982   0.00000  Uiso   1.00
C865   C     0.90864   0.67369   0.79549   0.00000  Uiso   1.00
C866   C     0.89743   0.66836   0.80301   0.00000  Uiso   1.00
C867   C     0.89267   0.67513   0.81503   0.00000  Uiso   1.00
C868   C     0.89945   0.68728   0.81943   0.00000  Uiso   1.00
C869   C     0.91064   0.69263   0.81190   0.00000  Uiso   1.00
C870   C     0.88054   0.66968   0.82282   0.00000  Uiso   1.00
C871   C     0.86882   0.66470   0.81570   0.00000  Uiso   1.00
C872   C     0.85726   0.65986   0.82302   0.00000  Uiso   1.00
C873   C     0.85720   0.65986   0.83761   0.00000  Uiso   1.00
C874   C     0.86896   0.66472   0.84473   0.00000  Uiso   1.00
C875   C     0.88051   0.66960   0.83742   0.00000  Uiso   1.00
C876   C     0.96515   0.22426   0.27315   0.00000  Uiso   1.00
C877   C     0.95851   0.23008   0.28471   0.00000  Uiso   1.00
C878   C     0.94794   0.22281   0.29149   0.00000  Uiso   1.00
C879   C     0.94378   0.20968   0.28681   0.00000  Uiso   1.00
C880   C     0.95064   0.20374   0.27531   0.00000  Uiso   1.00
C881   C     0.96122   0.21102   0.26855   0.00000  Uiso   1.00
N882   N     0.93263   0.20287   0.29405   0.00000  Uiso   1.00
C883   C     0.92619   0.19162   0.29028   0.00000  Uiso   1.00
C884   C     0.91469   0.18599   0.29871   0.00000  Uiso   1.00
C885   C     0.90768   0.17405   0.29419   0.00000  Uiso   1.00
C886   C     0.89656   0.16870   0.30182   0.00000  Uiso   1.00
C887   C     0.89222   0.17519   0.31415   0.00000  Uiso   1.00
C888   C     0.89933   0.18708   0.31874   0.00000  Uiso   1.00
C889   C     0.91045   0.19243   0.31110   0.00000  Uiso   1.00
C890   C     0.88019   0.16971   0.32208   0.00000  Uiso   1.00
C891   C     0.86828   0.16493   0.31512   0.00000  Uiso   1.00
C892   C     0.85686   0.16000   0.32257   0.00000  Uiso   1.00
C893   C     0.85709   0.15971   0.33714   0.00000  Uiso   1.00
C894   C     0.86900   0.16441   0.34412   0.00000  Uiso   1.00
C895   C     0.88043   0.16936   0.33668   0.00000  Uiso   1.00
C896   C     0.75148   0.73830   0.54014   0.00000  Uiso   1.00
C897   C     0.74597   0.73851   0.52684   0.00000  Uiso   1.00
N898   N     0.75454   0.74567   0.51834   0.00000  Uiso   1.00
C899   C     0.76282   0.75314   0.52684   0.00000  Uiso   1.00
C900   C     0.76220   0.74768   0.54016   0.00000  Uiso   1.00
C901   C     0.76785   0.76670   0.52390   0.00000  Uiso   1.00
C902   C     0.76563   0.77380   0.51117   0.00000  Uiso   1.00
C903   C     0.77333   0.78529   0.49288   0.00000  Uiso   1.00
C904   C     0.73185   0.73540   0.52389   0.00000  Uiso   1.00
C905   C     0.72514   0.73852   0.51115   0.00000  Uiso   1.00
C906   C     0.71263   0.73261   0.50713   0.00000  Uiso   1.00
C907   C     0.23730   0.24661   0.95983   0.00000  Uiso   1.00
C908   C     0.23680   0.25202   0.97317   0.00000  Uiso   1.00
N909   N     0.24484   0.24428   0.98167   0.00000  Uiso   1.00
C910   C     0.25319   0.23686   0.97317   0.00000  Uiso   1.00
C911   C     0.24775   0.23694   0.95983   0.00000  Uiso   1.00
C912   C     0.26719   0.23327   0.97613   0.00000  Uiso   1.00
C913   C     0.27403   0.23630   0.98884   0.00000  Uiso   1.00
C914   C     0.28629   0.22989   0.00712   0.00000  Uiso   1.00
C915   C     0.23214   0.26571   0.97612   0.00000  Uiso   1.00
C916   C     0.23459   0.27276   0.98884   0.00000  Uiso   1.00
C917   C     0.22723   0.28446   0.99288   0.00000  Uiso   1.00
N918   N     0.34484   0.15483   0.84513   0.00000  Uiso   1.00
H919   H     0.47204   0.72785   0.29224   0.00000  Uiso   1.00
H920   H     0.45280   0.71517   0.30342   0.00000  Uiso   1.00
H921   H     0.43641   0.70476   0.26305   0.00000  Uiso   1.00
H922   H     0.45553   0.71739   0.25202   0.00000  Uiso   1.00
H923   H     0.41668   0.70587   0.27592   0.00000  Uiso   1.00
H924   H     0.39191   0.70151   0.27981   0.00000  Uiso   1.00
H925   H     0.37290   0.69114   0.29291   0.00000  Uiso   1.00
H926   H     0.40230   0.67495   0.32270   0.00000  Uiso   1.00
H927   H     0.42125   0.68586   0.30983   0.00000  Uiso   1.00
H928   H     0.36239   0.66999   0.29873   0.00000  Uiso   1.00
H929   H     0.34263   0.66117   0.31183   0.00000  Uiso   1.00
H930   H     0.36375   0.67051   0.35019   0.00000  Uiso   1.00
H931   H     0.38322   0.68018   0.33714   0.00000  Uiso   1.00
H932   H     0.46162   0.23988   0.78964   0.00000  Uiso   1.00
H933   H     0.44302   0.22694   0.80143   0.00000  Uiso   1.00
H934   H     0.44766   0.19367   0.77170   0.00000  Uiso   1.00
H935   H     0.46601   0.20662   0.76007   0.00000  Uiso   1.00
H936   H     0.42895   0.18595   0.78144   0.00000  Uiso   1.00
H937   H     0.41088   0.16847   0.78534   0.00000  Uiso   1.00
H938   H     0.39144   0.15904   0.79869   0.00000  Uiso   1.00
H939   H     0.39605   0.19208   0.82865   0.00000  Uiso   1.00
H940   H     0.41560   0.20133   0.81546   0.00000  Uiso   1.00
H941   H     0.36768   0.16507   0.80431   0.00000  Uiso   1.00
H942   H     0.34757   0.15656   0.81726   0.00000  Uiso   1.00
H943   H     0.36915   0.16390   0.85578   0.00000  Uiso   1.00
H944   H     0.38935   0.17239   0.84287   0.00000  Uiso   1.00
H945   H     0.96625   0.73695   0.79287   0.00000  Uiso   1.00
H946   H     0.94768   0.72401   0.80473   0.00000  Uiso   1.00
H947   H     0.94288   0.69811   0.76844   0.00000  Uiso   1.00
H948   H     0.96139   0.71090   0.75685   0.00000  Uiso   1.00
H949   H     0.93020   0.68577   0.78244   0.00000  Uiso   1.00
H950   H     0.91207   0.66830   0.78623   0.00000  Uiso   1.00
H951   H     0.89252   0.65888   0.79946   0.00000  Uiso   1.00
H952   H     0.89591   0.69281   0.82856   0.00000  Uiso   1.00
H953   H     0.91555   0.70208   0.81550   0.00000  Uiso   1.00
H954   H     0.86845   0.66482   0.80447   0.00000  Uiso   1.00
H955   H     0.84825   0.65633   0.81730   0.00000  Uiso   1.00
H956   H     0.86919   0.66469   0.85597   0.00000  Uiso   1.00
H957   H     0.88946   0.67321   0.84318   0.00000  Uiso   1.00
H958   H     0.96145   0.24029   0.28840   0.00000  Uiso   1.00
H959   H     0.94284   0.22748   0.30035   0.00000  Uiso   1.00
H960   H     0.94803   0.19353   0.27150   0.00000  Uiso   1.00
H961   H     0.96634   0.20636   0.25969   0.00000  Uiso   1.00
H962   H     0.92882   0.18636   0.28073   0.00000  Uiso   1.00
H963   H     0.91079   0.16887   0.28470   0.00000  Uiso   1.00
H964   H     0.89141   0.15942   0.29811   0.00000  Uiso   1.00
H965   H     0.89612   0.19241   0.32810   0.00000  Uiso   1.00
H966   H     0.91563   0.20168   0.31484   0.00000  Uiso   1.00
H967   H     0.86768   0.16527   0.30390   0.00000  Uiso   1.00
H968   H     0.84772   0.15660   0.31697   0.00000  Uiso   1.00
H969   H     0.86944   0.16418   0.35535   0.00000  Uiso   1.00
H970   H     0.88952   0.17278   0.34233   0.00000  Uiso   1.00
H971   H     0.74688   0.73383   0.54937   0.00000  Uiso   1.00
H972   H     0.76716   0.75167   0.54942   0.00000  Uiso   1.00
H973   H     0.78020   0.79148   0.48650   0.00000  Uiso   1.00
H974   H     0.70544   0.72683   0.51355   0.00000  Uiso   1.00
H975   H     0.23253   0.25081   0.95056   0.00000  Uiso   1.00
H976   H     0.25231   0.23249   0.95057   0.00000  Uiso   1.00
H977   H     0.29318   0.22371   0.01350   0.00000  Uiso   1.00
H978   H     0.22054   0.29085   0.98650   0.00000  Uiso   1.00
C979   C     0.53495   0.72357   0.72864   0.00000  Uiso   1.00
C980   C     0.53572   0.72278   0.71413   0.00000  Uiso   1.00
C981   C     0.54663   0.71559   0.70780   0.00000  Uiso   1.00
C982   C     0.55702   0.70938   0.71585   0.00000  Uiso   1.00
C983   C     0.55600   0.70986   0.73043   0.00000  Uiso   1.00
C984   C     0.54502   0.71691   0.73676   0.00000  Uiso   1.00
N985   N     0.56841   0.70268   0.70893   0.00000  Uiso   1.00
C986   C     0.58080   0.70132   0.71411   0.00000  Uiso   1.00
C987   C     0.59200   0.69453   0.70617   0.00000  Uiso   1.00
C988   C     0.60573   0.69571   0.71085   0.00000  Uiso   1.00
C989   C     0.61660   0.68967   0.70339   0.00000  Uiso   1.00
C990   C     0.61395   0.68215   0.69114   0.00000  Uiso   1.00
C991   C     0.60014   0.68085   0.68656   0.00000  Uiso   1.00
C992   C     0.58927   0.68702   0.69396   0.00000  Uiso   1.00
C993   C     0.62561   0.67591   0.68314   0.00000  Uiso   1.00
C994   C     0.63720   0.67032   0.69004   0.00000  Uiso   1.00
C995   C     0.64845   0.66509   0.68255   0.00000  Uiso   1.00
C996   C     0.64832   0.66513   0.66797   0.00000  Uiso   1.00
C997   C     0.63662   0.67040   0.66104   0.00000  Uiso   1.00
C998   C     0.62542   0.67579   0.66853   0.00000  Uiso   1.00
C999   C     0.53492   0.22419   0.22602   0.00000  Uiso   1.00
C1000  C     0.54143   0.22978   0.21427   0.00000  Uiso   1.00
C1001  C     0.55200   0.22244   0.20758   0.00000  Uiso   1.00
C1002  C     0.55629   0.20945   0.21252   0.00000  Uiso   1.00
C1003  C     0.54959   0.20374   0.22423   0.00000  Uiso   1.00
C1004  C     0.53900   0.21110   0.23091   0.00000  Uiso   1.00
N1005  N     0.56741   0.20256   0.20532   0.00000  Uiso   1.00
C1006  C     0.57377   0.19126   0.20906   0.00000  Uiso   1.00
C1007  C     0.58528   0.18561   0.20065   0.00000  Uiso   1.00
C1008  C     0.59226   0.17366   0.20518   0.00000  Uiso   1.00
C1009  C     0.60341   0.16832   0.19759   0.00000  Uiso   1.00
C1010  C     0.60781   0.17483   0.18529   0.00000  Uiso   1.00
C1011  C     0.60070   0.18673   0.18068   0.00000  Uiso   1.00
C1012  C     0.58956   0.19207   0.18829   0.00000  Uiso   1.00
C1013  C     0.61990   0.16939   0.17742   0.00000  Uiso   1.00
C1014  C     0.63180   0.16472   0.18447   0.00000  Uiso   1.00
C1015  C     0.64330   0.15988   0.17708   0.00000  Uiso   1.00
C1016  C     0.64315   0.15958   0.16250   0.00000  Uiso   1.00
C1017  C     0.63124   0.16415   0.15545   0.00000  Uiso   1.00
C1018  C     0.61973   0.16903   0.16283   0.00000  Uiso   1.00
C1019  C     0.03483   0.72479   0.22596   0.00000  Uiso   1.00
C1020  C     0.03878   0.72840   0.21242   0.00000  Uiso   1.00
C1021  C     0.04931   0.72104   0.20569   0.00000  Uiso   1.00
C1022  C     0.05601   0.70995   0.21229   0.00000  Uiso   1.00
C1023  C     0.05203   0.70635   0.22592   0.00000  Uiso   1.00
C1024  C     0.04149   0.71371   0.23265   0.00000  Uiso   1.00
N1025  N     0.06706   0.70306   0.20498   0.00000  Uiso   1.00
C1026  C     0.07311   0.69152   0.20850   0.00000  Uiso   1.00
C1027  C     0.08470   0.68590   0.20018   0.00000  Uiso   1.00
C1028  C     0.09136   0.67369   0.20451   0.00000  Uiso   1.00
C1029  C     0.10257   0.66836   0.19699   0.00000  Uiso   1.00
C1030  C     0.10733   0.67513   0.18497   0.00000  Uiso   1.00
C1031  C     0.10055   0.68728   0.18057   0.00000  Uiso   1.00
C1032  C     0.08936   0.69263   0.18810   0.00000  Uiso   1.00
C1033  C     0.11946   0.66968   0.17718   0.00000  Uiso   1.00
C1034  C     0.13118   0.66470   0.18430   0.00000  Uiso   1.00
C1035  C     0.14274   0.65986   0.17698   0.00000  Uiso   1.00
C1036  C     0.14280   0.65986   0.16239   0.00000  Uiso   1.00
C1037  C     0.13104   0.66472   0.15527   0.00000  Uiso   1.00
C1038  C     0.11949   0.66960   0.16258   0.00000  Uiso   1.00
C1039  C     0.03485   0.22426   0.72685   0.00000  Uiso   1.00
C1040  C     0.04149   0.23008   0.71529   0.00000  Uiso   1.00
C1041  C     0.05206   0.22281   0.70851   0.00000  Uiso   1.00
C1042  C     0.05622   0.20968   0.71319   0.00000  Uiso   1.00
C1043  C     0.04936   0.20374   0.72469   0.00000  Uiso   1.00
C1044  C     0.03878   0.21102   0.73145   0.00000  Uiso   1.00
N1045  N     0.06737   0.20287   0.70595   0.00000  Uiso   1.00
C1046  C     0.07381   0.19162   0.70972   0.00000  Uiso   1.00
C1047  C     0.08531   0.18599   0.70129   0.00000  Uiso   1.00
C1048  C     0.09232   0.17405   0.70581   0.00000  Uiso   1.00
C1049  C     0.10344   0.16870   0.69818   0.00000  Uiso   1.00
C1050  C     0.10778   0.17519   0.68585   0.00000  Uiso   1.00
C1051  C     0.10067   0.18708   0.68126   0.00000  Uiso   1.00
C1052  C     0.08955   0.19243   0.68890   0.00000  Uiso   1.00
C1053  C     0.11981   0.16971   0.67792   0.00000  Uiso   1.00
C1054  C     0.13172   0.16493   0.68488   0.00000  Uiso   1.00
C1055  C     0.14314   0.16000   0.67743   0.00000  Uiso   1.00
C1056  C     0.14291   0.15971   0.66286   0.00000  Uiso   1.00
C1057  C     0.13100   0.16441   0.65588   0.00000  Uiso   1.00
C1058  C     0.11957   0.16936   0.66332   0.00000  Uiso   1.00
C1059  C     0.24852   0.73830   0.45986   0.00000  Uiso   1.00
C1060  C     0.25403   0.73851   0.47316   0.00000  Uiso   1.00
N1061  N     0.24546   0.74567   0.48166   0.00000  Uiso   1.00
C1062  C     0.23718   0.75314   0.47316   0.00000  Uiso   1.00
C1063  C     0.23780   0.74768   0.45984   0.00000  Uiso   1.00
C1064  C     0.23215   0.76670   0.47610   0.00000  Uiso   1.00
C1065  C     0.23437   0.77380   0.48883   0.00000  Uiso   1.00
C1066  C     0.22667   0.78529   0.50712   0.00000  Uiso   1.00
C1067  C     0.26815   0.73540   0.47611   0.00000  Uiso   1.00
C1068  C     0.27486   0.73852   0.48885   0.00000  Uiso   1.00
C1069  C     0.28737   0.73261   0.49287   0.00000  Uiso   1.00
C1070  C     0.76270   0.24661   0.04017   0.00000  Uiso   1.00
C1071  C     0.76320   0.25202   0.02683   0.00000  Uiso   1.00
N1072  N     0.75516   0.24428   0.01833   0.00000  Uiso   1.00
C1073  C     0.74681   0.23686   0.02683   0.00000  Uiso   1.00
C1074  C     0.75225   0.23694   0.04017   0.00000  Uiso   1.00
C1075  C     0.73281   0.23327   0.02387   0.00000  Uiso   1.00
C1076  C     0.72597   0.23630   0.01116   0.00000  Uiso   1.00
C1077  C     0.71371   0.22989   0.99288   0.00000  Uiso   1.00
C1078  C     0.76786   0.26571   0.02388   0.00000  Uiso   1.00
C1079  C     0.76541   0.27276   0.01116   0.00000  Uiso   1.00
C1080  C     0.77277   0.28446   0.00712   0.00000  Uiso   1.00
N1081  N     0.65516   0.15483   0.15487   0.00000  Uiso   1.00
H1082  H     0.52796   0.72785   0.70776   0.00000  Uiso   1.00
H1083  H     0.54720   0.71517   0.69658   0.00000  Uiso   1.00
H1084  H     0.56359   0.70476   0.73695   0.00000  Uiso   1.00
H1085  H     0.54447   0.71739   0.74798   0.00000  Uiso   1.00
H1086  H     0.58332   0.70587   0.72408   0.00000  Uiso   1.00
H1087  H     0.60809   0.70151   0.72019   0.00000  Uiso   1.00
H1088  H     0.62710   0.69114   0.70709   0.00000  Uiso   1.00
H1089  H     0.59770   0.67495   0.67730   0.00000  Uiso   1.00
H1090  H     0.57875   0.68586   0.69017   0.00000  Uiso   1.00
H1091  H     0.63761   0.66999   0.70127   0.00000  Uiso   1.00
H1092  H     0.65737   0.66117   0.68817   0.00000  Uiso   1.00
H1093  H     0.63625   0.67051   0.64981   0.00000  Uiso   1.00
H1094  H     0.61678   0.68018   0.66286   0.00000  Uiso   1.00
H1095  H     0.53838   0.23988   0.21036   0.00000  Uiso   1.00
H1096  H     0.55698   0.22694   0.19857   0.00000  Uiso   1.00
H1097  H     0.55234   0.19367   0.22830   0.00000  Uiso   1.00
H1098  H     0.53399   0.20662   0.23993   0.00000  Uiso   1.00
H1099  H     0.57105   0.18595   0.21856   0.00000  Uiso   1.00
H1100  H     0.58912   0.16847   0.21466   0.00000  Uiso   1.00
H1101  H     0.60856   0.15904   0.20131   0.00000  Uiso   1.00
H1102  H     0.60395   0.19208   0.17135   0.00000  Uiso   1.00
H1103  H     0.58440   0.20133   0.18454   0.00000  Uiso   1.00
H1104  H     0.63232   0.16507   0.19569   0.00000  Uiso   1.00
H1105  H     0.65243   0.15656   0.18274   0.00000  Uiso   1.00
H1106  H     0.63085   0.16390   0.14422   0.00000  Uiso   1.00
H1107  H     0.61065   0.17239   0.15713   0.00000  Uiso   1.00
H1108  H     0.03375   0.73695   0.20713   0.00000  Uiso   1.00
H1109  H     0.05232   0.72401   0.19527   0.00000  Uiso   1.00
H1110  H     0.05712   0.69811   0.23156   0.00000  Uiso   1.00
H1111  H     0.03861   0.71090   0.24315   0.00000  Uiso   1.00
H1112  H     0.06980   0.68577   0.21756   0.00000  Uiso   1.00
H1113  H     0.08793   0.66830   0.21377   0.00000  Uiso   1.00
H1114  H     0.10748   0.65888   0.20054   0.00000  Uiso   1.00
H1115  H     0.10409   0.69281   0.17144   0.00000  Uiso   1.00
H1116  H     0.08445   0.70208   0.18450   0.00000  Uiso   1.00
H1117  H     0.13155   0.66482   0.19553   0.00000  Uiso   1.00
H1118  H     0.15175   0.65633   0.18270   0.00000  Uiso   1.00
H1119  H     0.13081   0.66469   0.14403   0.00000  Uiso   1.00
H1120  H     0.11054   0.67321   0.15682   0.00000  Uiso   1.00
H1121  H     0.03855   0.24029   0.71160   0.00000  Uiso   1.00
H1122  H     0.05716   0.22748   0.69965   0.00000  Uiso   1.00
H1123  H     0.05197   0.19353   0.72850   0.00000  Uiso   1.00
H1124  H     0.03366   0.20636   0.74031   0.00000  Uiso   1.00
H1125  H     0.07118   0.18636   0.71927   0.00000  Uiso   1.00
H1126  H     0.08921   0.16887   0.71530   0.00000  Uiso   1.00
H1127  H     0.10859   0.15942   0.70189   0.00000  Uiso   1.00
H1128  H     0.10388   0.19241   0.67190   0.00000  Uiso   1.00
H1129  H     0.08437   0.20168   0.68516   0.00000  Uiso   1.00
H1130  H     0.13232   0.16527   0.69610   0.00000  Uiso   1.00
H1131  H     0.15228   0.15660   0.68303   0.00000  Uiso   1.00
H1132  H     0.13056   0.16418   0.64465   0.00000  Uiso   1.00
H1133  H     0.11048   0.17278   0.65767   0.00000  Uiso   1.00
H1134  H     0.25312   0.73383   0.45063   0.00000  Uiso   1.00
H1135  H     0.23284   0.75167   0.45058   0.00000  Uiso   1.00
H1136  H     0.21980   0.79148   0.51350   0.00000  Uiso   1.00
H1137  H     0.29456   0.72683   0.48645   0.00000  Uiso   1.00
H1138  H     0.76747   0.25081   0.04944   0.00000  Uiso   1.00
H1139  H     0.74769   0.23249   0.04943   0.00000  Uiso   1.00
H1140  H     0.70682   0.22371   0.98650   0.00000  Uiso   1.00
H1141  H     0.77946   0.29085   0.01350   0.00000  Uiso   1.00
C1142  C     0.53495   0.27643   0.27136   0.00000  Uiso   1.00
C1143  C     0.53572   0.27722   0.28587   0.00000  Uiso   1.00
C1144  C     0.54663   0.28441   0.29220   0.00000  Uiso   1.00
C1145  C     0.55702   0.29062   0.28415   0.00000  Uiso   1.00
C1146  C     0.55600   0.29014   0.26957   0.00000  Uiso   1.00
C1147  C     0.54502   0.28309   0.26324   0.00000  Uiso   1.00
N1148  N     0.56841   0.29732   0.29107   0.00000  Uiso   1.00
C1149  C     0.58080   0.29868   0.28589   0.00000  Uiso   1.00
C1150  C     0.59200   0.30547   0.29383   0.00000  Uiso   1.00
C1151  C     0.60573   0.30429   0.28915   0.00000  Uiso   1.00
C1152  C     0.61660   0.31033   0.29661   0.00000  Uiso   1.00
C1153  C     0.61395   0.31785   0.30886   0.00000  Uiso   1.00
C1154  C     0.60014   0.31915   0.31344   0.00000  Uiso   1.00
C1155  C     0.58927   0.31298   0.30604   0.00000  Uiso   1.00
C1156  C     0.62561   0.32409   0.31686   0.00000  Uiso   1.00
C1157  C     0.63720   0.32968   0.30996   0.00000  Uiso   1.00
C1158  C     0.64845   0.33491   0.31745   0.00000  Uiso   1.00
C1159  C     0.64832   0.33487   0.33203   0.00000  Uiso   1.00
C1160  C     0.63662   0.32960   0.33896   0.00000  Uiso   1.00
C1161  C     0.62542   0.32421   0.33147   0.00000  Uiso   1.00
C1162  C     0.53492   0.77581   0.77398   0.00000  Uiso   1.00
C1163  C     0.54143   0.77022   0.78573   0.00000  Uiso   1.00
C1164  C     0.55200   0.77756   0.79242   0.00000  Uiso   1.00
C1165  C     0.55629   0.79055   0.78748   0.00000  Uiso   1.00
C1166  C     0.54959   0.79626   0.77577   0.00000  Uiso   1.00
C1167  C     0.53900   0.78890   0.76909   0.00000  Uiso   1.00
N1168  N     0.56741   0.79744   0.79468   0.00000  Uiso   1.00
C1169  C     0.57377   0.80874   0.79094   0.00000  Uiso   1.00
C1170  C     0.58528   0.81439   0.79935   0.00000  Uiso   1.00
C1171  C     0.59226   0.82634   0.79482   0.00000  Uiso   1.00
C1172  C     0.60341   0.83168   0.80241   0.00000  Uiso   1.00
C1173  C     0.60781   0.82517   0.81471   0.00000  Uiso   1.00
C1174  C     0.60070   0.81327   0.81932   0.00000  Uiso   1.00
C1175  C     0.58956   0.80793   0.81171   0.00000  Uiso   1.00
C1176  C     0.61990   0.83061   0.82258   0.00000  Uiso   1.00
C1177  C     0.63180   0.83528   0.81553   0.00000  Uiso   1.00
C1178  C     0.64330   0.84012   0.82292   0.00000  Uiso   1.00
C1179  C     0.64315   0.84042   0.83750   0.00000  Uiso   1.00
C1180  C     0.63124   0.83585   0.84455   0.00000  Uiso   1.00
C1181  C     0.61973   0.83097   0.83717   0.00000  Uiso   1.00
C1182  C     0.03483   0.27521   0.77404   0.00000  Uiso   1.00
C1183  C     0.03878   0.27160   0.78758   0.00000  Uiso   1.00
C1184  C     0.04931   0.27896   0.79431   0.00000  Uiso   1.00
C1185  C     0.05601   0.29005   0.78771   0.00000  Uiso   1.00
C1186  C     0.05203   0.29365   0.77408   0.00000  Uiso   1.00
C1187  C     0.04149   0.28629   0.76735   0.00000  Uiso   1.00
N1188  N     0.06706   0.29694   0.79502   0.00000  Uiso   1.00
C1189  C     0.07311   0.30848   0.79150   0.00000  Uiso   1.00
C1190  C     0.08470   0.31410   0.79982   0.00000  Uiso   1.00
C1191  C     0.09136   0.32631   0.79549   0.00000  Uiso   1.00
C1192  C     0.10257   0.33164   0.80301   0.00000  Uiso   1.00
C1193  C     0.10733   0.32487   0.81503   0.00000  Uiso   1.00
C1194  C     0.10055   0.31272   0.81943   0.00000  Uiso   1.00
C1195  C     0.08936   0.30737   0.81190   0.00000  Uiso   1.00
C1196  C     0.11946   0.33032   0.82282   0.00000  Uiso   1.00
C1197  C     0.13118   0.33530   0.81570   0.00000  Uiso   1.00
C1198  C     0.14274   0.34014   0.82302   0.00000  Uiso   1.00
C1199  C     0.14280   0.34014   0.83761   0.00000  Uiso   1.00
C1200  C     0.13104   0.33528   0.84473   0.00000  Uiso   1.00
C1201  C     0.11949   0.33040   0.83742   0.00000  Uiso   1.00
C1202  C     0.03485   0.77574   0.27315   0.00000  Uiso   1.00
C1203  C     0.04149   0.76992   0.28471   0.00000  Uiso   1.00
C1204  C     0.05206   0.77719   0.29149   0.00000  Uiso   1.00
C1205  C     0.05622   0.79032   0.28681   0.00000  Uiso   1.00
C1206  C     0.04936   0.79626   0.27531   0.00000  Uiso   1.00
C1207  C     0.03878   0.78898   0.26855   0.00000  Uiso   1.00
N1208  N     0.06737   0.79713   0.29405   0.00000  Uiso   1.00
C1209  C     0.07381   0.80838   0.29028   0.00000  Uiso   1.00
C1210  C     0.08531   0.81401   0.29871   0.00000  Uiso   1.00
C1211  C     0.09232   0.82595   0.29419   0.00000  Uiso   1.00
C1212  C     0.10344   0.83130   0.30182   0.00000  Uiso   1.00
C1213  C     0.10778   0.82481   0.31415   0.00000  Uiso   1.00
C1214  C     0.10067   0.81292   0.31874   0.00000  Uiso   1.00
C1215  C     0.08955   0.80757   0.31110   0.00000  Uiso   1.00
C1216  C     0.11981   0.83029   0.32208   0.00000  Uiso   1.00
C1217  C     0.13172   0.83507   0.31512   0.00000  Uiso   1.00
C1218  C     0.14314   0.84000   0.32257   0.00000  Uiso   1.00
C1219  C     0.14291   0.84029   0.33714   0.00000  Uiso   1.00
C1220  C     0.13100   0.83559   0.34412   0.00000  Uiso   1.00
C1221  C     0.11957   0.83064   0.33668   0.00000  Uiso   1.00
C1222  C     0.24852   0.26170   0.54014   0.00000  Uiso   1.00
C1223  C     0.25403   0.26149   0.52684   0.00000  Uiso   1.00
N1224  N     0.24546   0.25433   0.51834   0.00000  Uiso   1.00
C1225  C     0.23718   0.24686   0.52684   0.00000  Uiso   1.00
C1226  C     0.23780   0.25232   0.54016   0.00000  Uiso   1.00
C1227  C     0.23215   0.23330   0.52390   0.00000  Uiso   1.00
C1228  C     0.23437   0.22620   0.51117   0.00000  Uiso   1.00
C1229  C     0.22667   0.21471   0.49288   0.00000  Uiso   1.00
C1230  C     0.26815   0.26460   0.52389   0.00000  Uiso   1.00
C1231  C     0.27486   0.26148   0.51115   0.00000  Uiso   1.00
C1232  C     0.28737   0.26739   0.50713   0.00000  Uiso   1.00
C1233  C     0.76270   0.75339   0.95983   0.00000  Uiso   1.00
C1234  C     0.76320   0.74798   0.97317   0.00000  Uiso   1.00
N1235  N     0.75516   0.75572   0.98167   0.00000  Uiso   1.00
C1236  C     0.74681   0.76314   0.97317   0.00000  Uiso   1.00
C1237  C     0.75225   0.76306   0.95983   0.00000  Uiso   1.00
C1238  C     0.73281   0.76673   0.97613   0.00000  Uiso   1.00
C1239  C     0.72597   0.76370   0.98884   0.00000  Uiso   1.00
C1240  C     0.71371   0.77011   0.00712   0.00000  Uiso   1.00
C1241  C     0.76786   0.73429   0.97612   0.00000  Uiso   1.00
C1242  C     0.76541   0.72724   0.98884   0.00000  Uiso   1.00
C1243  C     0.77277   0.71554   0.99288   0.00000  Uiso   1.00
N1244  N     0.65516   0.84517   0.84513   0.00000  Uiso   1.00
H1245  H     0.52796   0.27215   0.29224   0.00000  Uiso   1.00
H1246  H     0.54720   0.28483   0.30342   0.00000  Uiso   1.00
H1247  H     0.56359   0.29524   0.26305   0.00000  Uiso   1.00
H1248  H     0.54447   0.28261   0.25202   0.00000  Uiso   1.00
H1249  H     0.58332   0.29413   0.27592   0.00000  Uiso   1.00
H1250  H     0.60809   0.29849   0.27981   0.00000  Uiso   1.00
H1251  H     0.62710   0.30886   0.29291   0.00000  Uiso   1.00
H1252  H     0.59770   0.32505   0.32270   0.00000  Uiso   1.00
H1253  H     0.57875   0.31414   0.30983   0.00000  Uiso   1.00
H1254  H     0.63761   0.33001   0.29873   0.00000  Uiso   1.00
H1255  H     0.65737   0.33883   0.31183   0.00000  Uiso   1.00
H1256  H     0.63625   0.32949   0.35019   0.00000  Uiso   1.00
H1257  H     0.61678   0.31982   0.33714   0.00000  Uiso   1.00
H1258  H     0.53838   0.76012   0.78964   0.00000  Uiso   1.00
H1259  H     0.55698   0.77306   0.80143   0.00000  Uiso   1.00
H1260  H     0.55234   0.80633   0.77170   0.00000  Uiso   1.00
H1261  H     0.53399   0.79338   0.76007   0.00000  Uiso   1.00
H1262  H     0.57105   0.81405   0.78144   0.00000  Uiso   1.00
H1263  H     0.58912   0.83153   0.78534   0.00000  Uiso   1.00
H1264  H     0.60856   0.84096   0.79869   0.00000  Uiso   1.00
H1265  H     0.60395   0.80792   0.82865   0.00000  Uiso   1.00
H1266  H     0.58440   0.79867   0.81546   0.00000  Uiso   1.00
H1267  H     0.63232   0.83493   0.80431   0.00000  Uiso   1.00
H1268  H     0.65243   0.84344   0.81726   0.00000  Uiso   1.00
H1269  H     0.63085   0.83610   0.85578   0.00000  Uiso   1.00
H1270  H     0.61065   0.82761   0.84287   0.00000  Uiso   1.00
H1271  H     0.03375   0.26305   0.79287   0.00000  Uiso   1.00
H1272  H     0.05232   0.27599   0.80473   0.00000  Uiso   1.00
H1273  H     0.05712   0.30189   0.76844   0.00000  Uiso   1.00
H1274  H     0.03861   0.28910   0.75685   0.00000  Uiso   1.00
H1275  H     0.06980   0.31423   0.78244   0.00000  Uiso   1.00
H1276  H     0.08793   0.33170   0.78623   0.00000  Uiso   1.00
H1277  H     0.10748   0.34112   0.79946   0.00000  Uiso   1.00
H1278  H     0.10409   0.30719   0.82856   0.00000  Uiso   1.00
H1279  H     0.08445   0.29792   0.81550   0.00000  Uiso   1.00
H1280  H     0.13155   0.33518   0.80447   0.00000  Uiso   1.00
H1281  H     0.15175   0.34367   0.81730   0.00000  Uiso   1.00
H1282  H     0.13081   0.33531   0.85597   0.00000  Uiso   1.00
H1283  H     0.11054   0.32679   0.84318   0.00000  Uiso   1.00
H1284  H     0.03855   0.75971   0.28840   0.00000  Uiso   1.00
H1285  H     0.05716   0.77252   0.30035   0.00000  Uiso   1.00
H1286  H     0.05197   0.80647   0.27150   0.00000  Uiso   1.00
H1287  H     0.03366   0.79364   0.25969   0.00000  Uiso   1.00
H1288  H     0.07118   0.81364   0.28073   0.00000  Uiso   1.00
H1289  H     0.08921   0.83113   0.28470   0.00000  Uiso   1.00
H1290  H     0.10859   0.84058   0.29811   0.00000  Uiso   1.00
H1291  H     0.10388   0.80759   0.32810   0.00000  Uiso   1.00
H1292  H     0.08437   0.79832   0.31484   0.00000  Uiso   1.00
H1293  H     0.13232   0.83473   0.30390   0.00000  Uiso   1.00
H1294  H     0.15228   0.84340   0.31697   0.00000  Uiso   1.00
H1295  H     0.13056   0.83582   0.35535   0.00000  Uiso   1.00
H1296  H     0.11048   0.82722   0.34233   0.00000  Uiso   1.00
H1297  H     0.25312   0.26617   0.54937   0.00000  Uiso   1.00
H1298  H     0.23284   0.24833   0.54942   0.00000  Uiso   1.00
H1299  H     0.21980   0.20852   0.48650   0.00000  Uiso   1.00
H1300  H     0.29456   0.27317   0.51355   0.00000  Uiso   1.00
H1301  H     0.76747   0.74919   0.95056   0.00000  Uiso   1.00
H1302  H     0.74769   0.76751   0.95057   0.00000  Uiso   1.00
H1303  H     0.70682   0.77629   0.01350   0.00000  Uiso   1.00
H1304  H     0.77946   0.70915   0.98650   0.00000  Uiso   1.00
C1305  C     0.72864   0.46505   0.27643   0.00000  Uiso   1.00
C1306  C     0.71413   0.46428   0.27722   0.00000  Uiso   1.00
C1307  C     0.70780   0.45337   0.28441   0.00000  Uiso   1.00
C1308  C     0.71585   0.44298   0.29062   0.00000  Uiso   1.00
C1309  C     0.73043   0.44400   0.29014   0.00000  Uiso   1.00
C1310  C     0.73676   0.45498   0.28309   0.00000  Uiso   1.00
N1311  N     0.70893   0.43159   0.29732   0.00000  Uiso   1.00
C1312  C     0.71411   0.41920   0.29868   0.00000  Uiso   1.00
C1313  C     0.70617   0.40800   0.30547   0.00000  Uiso   1.00
C1314  C     0.71085   0.39427   0.30429   0.00000  Uiso   1.00
C1315  C     0.70339   0.38340   0.31033   0.00000  Uiso   1.00
C1316  C     0.69114   0.38605   0.31785   0.00000  Uiso   1.00
C1317  C     0.68656   0.39986   0.31915   0.00000  Uiso   1.00
C1318  C     0.69396   0.41073   0.31298   0.00000  Uiso   1.00
C1319  C     0.68314   0.37439   0.32409   0.00000  Uiso   1.00
C1320  C     0.69004   0.36280   0.32968   0.00000  Uiso   1.00
C1321  C     0.68255   0.35155   0.33491   0.00000  Uiso   1.00
C1322  C     0.66797   0.35168   0.33487   0.00000  Uiso   1.00
C1323  C     0.66104   0.36338   0.32960   0.00000  Uiso   1.00
C1324  C     0.66853   0.37458   0.32421   0.00000  Uiso   1.00
C1325  C     0.22602   0.46508   0.77581   0.00000  Uiso   1.00
C1326  C     0.21427   0.45857   0.77022   0.00000  Uiso   1.00
C1327  C     0.20758   0.44800   0.77756   0.00000  Uiso   1.00
C1328  C     0.21252   0.44371   0.79055   0.00000  Uiso   1.00
C1329  C     0.22423   0.45041   0.79626   0.00000  Uiso   1.00
C1330  C     0.23091   0.46100   0.78890   0.00000  Uiso   1.00
N1331  N     0.20532   0.43259   0.79744   0.00000  Uiso   1.00
C1332  C     0.20906   0.42623   0.80874   0.00000  Uiso   1.00
C1333  C     0.20065   0.41472   0.81439   0.00000  Uiso   1.00
C1334  C     0.20518   0.40774   0.82634   0.00000  Uiso   1.00
C1335  C     0.19759   0.39659   0.83168   0.00000  Uiso   1.00
C1336  C     0.18529   0.39219   0.82517   0.00000  Uiso   1.00
C1337  C     0.18068   0.39930   0.81327   0.00000  Uiso   1.00
C1338  C     0.18829   0.41044   0.80793   0.00000  Uiso   1.00
C1339  C     0.17742   0.38010   0.83061   0.00000  Uiso   1.00
C1340  C     0.18447   0.36820   0.83528   0.00000  Uiso   1.00
C1341  C     0.17708   0.35670   0.84012   0.00000  Uiso   1.00
C1342  C     0.16250   0.35685   0.84042   0.00000  Uiso   1.00
C1343  C     0.15545   0.36876   0.83585   0.00000  Uiso   1.00
C1344  C     0.16283   0.38027   0.83097   0.00000  Uiso   1.00
C1345  C     0.22596   0.96517   0.27521   0.00000  Uiso   1.00
C1346  C     0.21242   0.96122   0.27160   0.00000  Uiso   1.00
C1347  C     0.20569   0.95069   0.27896   0.00000  Uiso   1.00
C1348  C     0.21229   0.94399   0.29005   0.00000  Uiso   1.00
C1349  C     0.22592   0.94797   0.29365   0.00000  Uiso   1.00
C1350  C     0.23265   0.95851   0.28629   0.00000  Uiso   1.00
N1351  N     0.20498   0.93294   0.29694   0.00000  Uiso   1.00
C1352  C     0.20850   0.92689   0.30848   0.00000  Uiso   1.00
C1353  C     0.20018   0.91530   0.31410   0.00000  Uiso   1.00
C1354  C     0.20451   0.90864   0.32631   0.00000  Uiso   1.00
C1355  C     0.19699   0.89743   0.33164   0.00000  Uiso   1.00
C1356  C     0.18497   0.89267   0.32487   0.00000  Uiso   1.00
C1357  C     0.18057   0.89945   0.31272   0.00000  Uiso   1.00
C1358  C     0.18810   0.91064   0.30737   0.00000  Uiso   1.00
C1359  C     0.17718   0.88054   0.33032   0.00000  Uiso   1.00
C1360  C     0.18430   0.86882   0.33530   0.00000  Uiso   1.00
C1361  C     0.17698   0.85726   0.34014   0.00000  Uiso   1.00
C1362  C     0.16239   0.85720   0.34014   0.00000  Uiso   1.00
C1363  C     0.15527   0.86896   0.33528   0.00000  Uiso   1.00
C1364  C     0.16258   0.88051   0.33040   0.00000  Uiso   1.00
C1365  C     0.72685   0.96515   0.77574   0.00000  Uiso   1.00
C1366  C     0.71529   0.95851   0.76992   0.00000  Uiso   1.00
C1367  C     0.70851   0.94794   0.77719   0.00000  Uiso   1.00
C1368  C     0.71319   0.94378   0.79032   0.00000  Uiso   1.00
C1369  C     0.72469   0.95064   0.79626   0.00000  Uiso   1.00
C1370  C     0.73145   0.96122   0.78898   0.00000  Uiso   1.00
N1371  N     0.70595   0.93263   0.79713   0.00000  Uiso   1.00
C1372  C     0.70972   0.92619   0.80838   0.00000  Uiso   1.00
C1373  C     0.70129   0.91469   0.81401   0.00000  Uiso   1.00
C1374  C     0.70581   0.90768   0.82595   0.00000  Uiso   1.00
C1375  C     0.69818   0.89656   0.83130   0.00000  Uiso   1.00
C1376  C     0.68585   0.89222   0.82481   0.00000  Uiso   1.00
C1377  C     0.68126   0.89933   0.81292   0.00000  Uiso   1.00
C1378  C     0.68890   0.91045   0.80757   0.00000  Uiso   1.00
C1379  C     0.67792   0.88019   0.83029   0.00000  Uiso   1.00
C1380  C     0.68488   0.86828   0.83507   0.00000  Uiso   1.00
C1381  C     0.67743   0.85686   0.84000   0.00000  Uiso   1.00
C1382  C     0.66286   0.85709   0.84029   0.00000  Uiso   1.00
C1383  C     0.65588   0.86900   0.83559   0.00000  Uiso   1.00
C1384  C     0.66332   0.88043   0.83064   0.00000  Uiso   1.00
C1385  C     0.45986   0.75148   0.26170   0.00000  Uiso   1.00
C1386  C     0.47316   0.74597   0.26149   0.00000  Uiso   1.00
N1387  N     0.48166   0.75454   0.25433   0.00000  Uiso   1.00
C1388  C     0.47316   0.76282   0.24686   0.00000  Uiso   1.00
C1389  C     0.45984   0.76220   0.25232   0.00000  Uiso   1.00
C1390  C     0.47610   0.76785   0.23330   0.00000  Uiso   1.00
C1391  C     0.48883   0.76563   0.22620   0.00000  Uiso   1.00
C1392  C     0.50712   0.77333   0.21471   0.00000  Uiso   1.00
C1393  C     0.47611   0.73185   0.26460   0.00000  Uiso   1.00
C1394  C     0.48885   0.72514   0.26148   0.00000  Uiso   1.00
C1395  C     0.49287   0.71263   0.26739   0.00000  Uiso   1.00
C1396  C     0.04017   0.23730   0.75339   0.00000  Uiso   1.00
C1397  C     0.02683   0.23680   0.74798   0.00000  Uiso   1.00
N1398  N     0.01833   0.24484   0.75572   0.00000  Uiso   1.00
C1399  C     0.02683   0.25319   0.76314   0.00000  Uiso   1.00
C1400  C     0.04017   0.24775   0.76306   0.00000  Uiso   1.00
C1401  C     0.02387   0.26719   0.76673   0.00000  Uiso   1.00
C1402  C     0.01116   0.27403   0.76370   0.00000  Uiso   1.00
C1403  C     0.99288   0.28629   0.77011   0.00000  Uiso   1.00
C1404  C     0.02388   0.23214   0.73429   0.00000  Uiso   1.00
C1405  C     0.01116   0.23459   0.72724   0.00000  Uiso   1.00
C1406  C     0.00712   0.22723   0.71554   0.00000  Uiso   1.00
N1407  N     0.15487   0.34484   0.84517   0.00000  Uiso   1.00
H1408  H     0.70776   0.47204   0.27215   0.00000  Uiso   1.00
H1409  H     0.69658   0.45280   0.28483   0.00000  Uiso   1.00
H1410  H     0.73695   0.43641   0.29524   0.00000  Uiso   1.00
H1411  H     0.74798   0.45553   0.28261   0.00000  Uiso   1.00
H1412  H     0.72408   0.41668   0.29413   0.00000  Uiso   1.00
H1413  H     0.72019   0.39191   0.29849   0.00000  Uiso   1.00
H1414  H     0.70709   0.37290   0.30886   0.00000  Uiso   1.00
H1415  H     0.67730   0.40230   0.32505   0.00000  Uiso   1.00
H1416  H     0.69017   0.42125   0.31414   0.00000  Uiso   1.00
H1417  H     0.70127   0.36239   0.33001   0.00000  Uiso   1.00
H1418  H     0.68817   0.34263   0.33883   0.00000  Uiso   1.00
H1419  H     0.64981   0.36375   0.32949   0.00000  Uiso   1.00
H1420  H     0.66286   0.38322   0.31982   0.00000  Uiso   1.00
H1421  H     0.21036   0.46162   0.76012   0.00000  Uiso   1.00
H1422  H     0.19857   0.44302   0.77306   0.00000  Uiso   1.00
H1423  H     0.22830   0.44766   0.80633   0.00000  Uiso   1.00
H1424  H     0.23993   0.46601   0.79338   0.00000  Uiso   1.00
H1425  H     0.21856   0.42895   0.81405   0.00000  Uiso   1.00
H1426  H     0.21466   0.41088   0.83153   0.00000  Uiso   1.00
H1427  H     0.20131   0.39144   0.84096   0.00000  Uiso   1.00
H1428  H     0.17135   0.39605   0.80792   0.00000  Uiso   1.00
H1429  H     0.18454   0.41560   0.79867   0.00000  Uiso   1.00
H1430  H     0.19569   0.36768   0.83493   0.00000  Uiso   1.00
H1431  H     0.18274   0.34757   0.84344   0.00000  Uiso   1.00
H1432  H     0.14422   0.36915   0.83610   0.00000  Uiso   1.00
H1433  H     0.15713   0.38935   0.82761   0.00000  Uiso   1.00
H1434  H     0.20713   0.96625   0.26305   0.00000  Uiso   1.00
H1435  H     0.19527   0.94768   0.27599   0.00000  Uiso   1.00
H1436  H     0.23156   0.94288   0.30189   0.00000  Uiso   1.00
H1437  H     0.24315   0.96139   0.28910   0.00000  Uiso   1.00
H1438  H     0.21756   0.93020   0.31423   0.00000  Uiso   1.00
H1439  H     0.21377   0.91207   0.33170   0.00000  Uiso   1.00
H1440  H     0.20054   0.89252   0.34112   0.00000  Uiso   1.00
H1441  H     0.17144   0.89591   0.30719   0.00000  Uiso   1.00
H1442  H     0.18450   0.91555   0.29792   0.00000  Uiso   1.00
H1443  H     0.19553   0.86845   0.33518   0.00000  Uiso   1.00
H1444  H     0.18270   0.84825   0.34367   0.00000  Uiso   1.00
H1445  H     0.14403   0.86919   0.33531   0.00000  Uiso   1.00
H1446  H     0.15682   0.88946   0.32679   0.00000  Uiso   1.00
H1447  H     0.71160   0.96145   0.75971   0.00000  Uiso   1.00
H1448  H     0.69965   0.94284   0.77252   0.00000  Uiso   1.00
H1449  H     0.72850   0.94803   0.80647   0.00000  Uiso   1.00
H1450  H     0.74031   0.96634   0.79364   0.00000  Uiso   1.00
H1451  H     0.71927   0.92882   0.81364   0.00000  Uiso   1.00
H1452  H     0.71530   0.91079   0.83113   0.00000  Uiso   1.00
H1453  H     0.70189   0.89141   0.84058   0.00000  Uiso   1.00
H1454  H     0.67190   0.89612   0.80759   0.00000  Uiso   1.00
H1455  H     0.68516   0.91563   0.79832   0.00000  Uiso   1.00
H1456  H     0.69610   0.86768   0.83473   0.00000  Uiso   1.00
H1457  H     0.68303   0.84772   0.84340   0.00000  Uiso   1.00
H1458  H     0.64465   0.86944   0.83582   0.00000  Uiso   1.00
H1459  H     0.65767   0.88952   0.82722   0.00000  Uiso   1.00
H1460  H     0.45063   0.74688   0.26617   0.00000  Uiso   1.00
H1461  H     0.45058   0.76716   0.24833   0.00000  Uiso   1.00
H1462  H     0.51350   0.78020   0.20852   0.00000  Uiso   1.00
H1463  H     0.48645   0.70544   0.27317   0.00000  Uiso   1.00
H1464  H     0.04944   0.23253   0.74919   0.00000  Uiso   1.00
H1465  H     0.04943   0.25231   0.76751   0.00000  Uiso   1.00
H1466  H     0.98650   0.29318   0.77629   0.00000  Uiso   1.00
H1467  H     0.01350   0.22054   0.70915   0.00000  Uiso   1.00
C1468  C     0.27136   0.46505   0.72357   0.00000  Uiso   1.00
C1469  C     0.28587   0.46428   0.72278   0.00000  Uiso   1.00
C1470  C     0.29220   0.45337   0.71559   0.00000  Uiso   1.00
C1471  C     0.28415   0.44298   0.70938   0.00000  Uiso   1.00
C1472  C     0.26957   0.44400   0.70986   0.00000  Uiso   1.00
C1473  C     0.26324   0.45498   0.71691   0.00000  Uiso   1.00
N1474  N     0.29107   0.43159   0.70268   0.00000  Uiso   1.00
C1475  C     0.28589   0.41920   0.70132   0.00000  Uiso   1.00
C1476  C     0.29383   0.40800   0.69453   0.00000  Uiso   1.00
C1477  C     0.28915   0.39427   0.69571   0.00000  Uiso   1.00
C1478  C     0.29661   0.38340   0.68967   0.00000  Uiso   1.00
C1479  C     0.30886   0.38605   0.68215   0.00000  Uiso   1.00
C1480  C     0.31344   0.39986   0.68085   0.00000  Uiso   1.00
C1481  C     0.30604   0.41073   0.68702   0.00000  Uiso   1.00
C1482  C     0.31686   0.37439   0.67591   0.00000  Uiso   1.00
C1483  C     0.30996   0.36280   0.67032   0.00000  Uiso   1.00
C1484  C     0.31745   0.35155   0.66509   0.00000  Uiso   1.00
C1485  C     0.33203   0.35168   0.66513   0.00000  Uiso   1.00
C1486  C     0.33896   0.36338   0.67040   0.00000  Uiso   1.00
C1487  C     0.33147   0.37458   0.67579   0.00000  Uiso   1.00
C1488  C     0.77398   0.46508   0.22419   0.00000  Uiso   1.00
C1489  C     0.78573   0.45857   0.22978   0.00000  Uiso   1.00
C1490  C     0.79242   0.44800   0.22244   0.00000  Uiso   1.00
C1491  C     0.78748   0.44371   0.20945   0.00000  Uiso   1.00
C1492  C     0.77577   0.45041   0.20374   0.00000  Uiso   1.00
C1493  C     0.76909   0.46100   0.21110   0.00000  Uiso   1.00
N1494  N     0.79468   0.43259   0.20256   0.00000  Uiso   1.00
C1495  C     0.79094   0.42623   0.19126   0.00000  Uiso   1.00
C1496  C     0.79935   0.41472   0.18561   0.00000  Uiso   1.00
C1497  C     0.79482   0.40774   0.17366   0.00000  Uiso   1.00
C1498  C     0.80241   0.39659   0.16832   0.00000  Uiso   1.00
C1499  C     0.81471   0.39219   0.17483   0.00000  Uiso   1.00
C1500  C     0.81932   0.39930   0.18673   0.00000  Uiso   1.00
C1501  C     0.81171   0.41044   0.19207   0.00000  Uiso   1.00
C1502  C     0.82258   0.38010   0.16939   0.00000  Uiso   1.00
C1503  C     0.81553   0.36820   0.16472   0.00000  Uiso   1.00
C1504  C     0.82292   0.35670   0.15988   0.00000  Uiso   1.00
C1505  C     0.83750   0.35685   0.15958   0.00000  Uiso   1.00
C1506  C     0.84455   0.36876   0.16415   0.00000  Uiso   1.00
C1507  C     0.83717   0.38027   0.16903   0.00000  Uiso   1.00
C1508  C     0.77404   0.96517   0.72479   0.00000  Uiso   1.00
C1509  C     0.78758   0.96122   0.72840   0.00000  Uiso   1.00
C1510  C     0.79431   0.95069   0.72104   0.00000  Uiso   1.00
C1511  C     0.78771   0.94399   0.70995   0.00000  Uiso   1.00
C1512  C     0.77408   0.94797   0.70635   0.00000  Uiso   1.00
C1513  C     0.76735   0.95851   0.71371   0.00000  Uiso   1.00
N1514  N     0.79502   0.93294   0.70306   0.00000  Uiso   1.00
C1515  C     0.79150   0.92689   0.69152   0.00000  Uiso   1.00
C1516  C     0.79982   0.91530   0.68590   0.00000  Uiso   1.00
C1517  C     0.79549   0.90864   0.67369   0.00000  Uiso   1.00
C1518  C     0.80301   0.89743   0.66836   0.00000  Uiso   1.00
C1519  C     0.81503   0.89267   0.67513   0.00000  Uiso   1.00
C1520  C     0.81943   0.89945   0.68728   0.00000  Uiso   1.00
C1521  C     0.81190   0.91064   0.69263   0.00000  Uiso   1.00
C1522  C     0.82282   0.88054   0.66968   0.00000  Uiso   1.00
C1523  C     0.81570   0.86882   0.66470   0.00000  Uiso   1.00
C1524  C     0.82302   0.85726   0.65986   0.00000  Uiso   1.00
C1525  C     0.83761   0.85720   0.65986   0.00000  Uiso   1.00
C1526  C     0.84473   0.86896   0.66472   0.00000  Uiso   1.00
C1527  C     0.83742   0.88051   0.66960   0.00000  Uiso   1.00
C1528  C     0.27315   0.96515   0.22426   0.00000  Uiso   1.00
C1529  C     0.28471   0.95851   0.23008   0.00000  Uiso   1.00
C1530  C     0.29149   0.94794   0.22281   0.00000  Uiso   1.00
C1531  C     0.28681   0.94378   0.20968   0.00000  Uiso   1.00
C1532  C     0.27531   0.95064   0.20374   0.00000  Uiso   1.00
C1533  C     0.26855   0.96122   0.21102   0.00000  Uiso   1.00
N1534  N     0.29405   0.93263   0.20287   0.00000  Uiso   1.00
C1535  C     0.29028   0.92619   0.19162   0.00000  Uiso   1.00
C1536  C     0.29871   0.91469   0.18599   0.00000  Uiso   1.00
C1537  C     0.29419   0.90768   0.17405   0.00000  Uiso   1.00
C1538  C     0.30182   0.89656   0.16870   0.00000  Uiso   1.00
C1539  C     0.31415   0.89222   0.17519   0.00000  Uiso   1.00
C1540  C     0.31874   0.89933   0.18708   0.00000  Uiso   1.00
C1541  C     0.31110   0.91045   0.19243   0.00000  Uiso   1.00
C1542  C     0.32208   0.88019   0.16971   0.00000  Uiso   1.00
C1543  C     0.31512   0.86828   0.16493   0.00000  Uiso   1.00
C1544  C     0.32257   0.85686   0.16000   0.00000  Uiso   1.00
C1545  C     0.33714   0.85709   0.15971   0.00000  Uiso   1.00
C1546  C     0.34412   0.86900   0.16441   0.00000  Uiso   1.00
C1547  C     0.33668   0.88043   0.16936   0.00000  Uiso   1.00
C1548  C     0.54014   0.75148   0.73830   0.00000  Uiso   1.00
C1549  C     0.52684   0.74597   0.73851   0.00000  Uiso   1.00
N1550  N     0.51834   0.75454   0.74567   0.00000  Uiso   1.00
C1551  C     0.52684   0.76282   0.75314   0.00000  Uiso   1.00
C1552  C     0.54016   0.76220   0.74768   0.00000  Uiso   1.00
C1553  C     0.52390   0.76785   0.76670   0.00000  Uiso   1.00
C1554  C     0.51117   0.76563   0.77380   0.00000  Uiso   1.00
C1555  C     0.49288   0.77333   0.78529   0.00000  Uiso   1.00
C1556  C     0.52389   0.73185   0.73540   0.00000  Uiso   1.00
C1557  C     0.51115   0.72514   0.73852   0.00000  Uiso   1.00
C1558  C     0.50713   0.71263   0.73261   0.00000  Uiso   1.00
C1559  C     0.95983   0.23730   0.24661   0.00000  Uiso   1.00
C1560  C     0.97317   0.23680   0.25202   0.00000  Uiso   1.00
N1561  N     0.98167   0.24484   0.24428   0.00000  Uiso   1.00
C1562  C     0.97317   0.25319   0.23686   0.00000  Uiso   1.00
C1563  C     0.95983   0.24775   0.23694   0.00000  Uiso   1.00
C1564  C     0.97613   0.26719   0.23327   0.00000  Uiso   1.00
C1565  C     0.98884   0.27403   0.23630   0.00000  Uiso   1.00
C1566  C     0.00712   0.28629   0.22989   0.00000  Uiso   1.00
C1567  C     0.97612   0.23214   0.26571   0.00000  Uiso   1.00
C1568  C     0.98884   0.23459   0.27276   0.00000  Uiso   1.00
C1569  C     0.99288   0.22723   0.28446   0.00000  Uiso   1.00
N1570  N     0.84513   0.34484   0.15483   0.00000  Uiso   1.00
H1571  H     0.29224   0.47204   0.72785   0.00000  Uiso   1.00
H1572  H     0.30342   0.45280   0.71517   0.00000  Uiso   1.00
H1573  H     0.26305   0.43641   0.70476   0.00000  Uiso   1.00
H1574  H     0.25202   0.45553   0.71739   0.00000  Uiso   1.00
H1575  H     0.27592   0.41668   0.70587   0.00000  Uiso   1.00
H1576  H     0.27981   0.39191   0.70151   0.00000  Uiso   1.00
H1577  H     0.29291   0.37290   0.69114   0.00000  Uiso   1.00
H1578  H     0.32270   0.40230   0.67495   0.00000  Uiso   1.00
H1579  H     0.30983   0.42125   0.68586   0.00000  Uiso   1.00
H1580  H     0.29873   0.36239   0.66999   0.00000  Uiso   1.00
H1581  H     0.31183   0.34263   0.66117   0.00000  Uiso   1.00
H1582  H     0.35019   0.36375   0.67051   0.00000  Uiso   1.00
H1583  H     0.33714   0.38322   0.68018   0.00000  Uiso   1.00
H1584  H     0.78964   0.46162   0.23988   0.00000  Uiso   1.00
H1585  H     0.80143   0.44302   0.22694   0.00000  Uiso   1.00
H1586  H     0.77170   0.44766   0.19367   0.00000  Uiso   1.00
H1587  H     0.76007   0.46601   0.20662   0.00000  Uiso   1.00
H1588  H     0.78144   0.42895   0.18595   0.00000  Uiso   1.00
H1589  H     0.78534   0.41088   0.16847   0.00000  Uiso   1.00
H1590  H     0.79869   0.39144   0.15904   0.00000  Uiso   1.00
H1591  H     0.82865   0.39605   0.19208   0.00000  Uiso   1.00
H1592  H     0.81546   0.41560   0.20133   0.00000  Uiso   1.00
H1593  H     0.80431   0.36768   0.16507   0.00000  Uiso   1.00
H1594  H     0.81726   0.34757   0.15656   0.00000  Uiso   1.00
H1595  H     0.85578   0.36915   0.16390   0.00000  Uiso   1.00
H1596  H     0.84287   0.38935   0.17239   0.00000  Uiso   1.00
H1597  H     0.79287   0.96625   0.73695   0.00000  Uiso   1.00
H1598  H     0.80473   0.94768   0.72401   0.00000  Uiso   1.00
H1599  H     0.76844   0.94288   0.69811   0.00000  Uiso   1.00
H1600  H     0.75685   0.96139   0.71090   0.00000  Uiso   1.00
H1601  H     0.78244   0.93020   0.68577   0.00000  Uiso   1.00
H1602  H     0.78623   0.91207   0.66830   0.00000  Uiso   1.00
H1603  H     0.79946   0.89252   0.65888   0.00000  Uiso   1.00
H1604  H     0.82856   0.89591   0.69281   0.00000  Uiso   1.00
H1605  H     0.81550   0.91555   0.70208   0.00000  Uiso   1.00
H1606  H     0.80447   0.86845   0.66482   0.00000  Uiso   1.00
H1607  H     0.81730   0.84825   0.65633   0.00000  Uiso   1.00
H1608  H     0.85597   0.86919   0.66469   0.00000  Uiso   1.00
H1609  H     0.84318   0.88946   0.67321   0.00000  Uiso   1.00
H1610  H     0.28840   0.96145   0.24029   0.00000  Uiso   1.00
H1611  H     0.30035   0.94284   0.22748   0.00000  Uiso   1.00
H1612  H     0.27150   0.94803   0.19353   0.00000  Uiso   1.00
H1613  H     0.25969   0.96634   0.20636   0.00000  Uiso   1.00
H1614  H     0.28073   0.92882   0.18636   0.00000  Uiso   1.00
H1615  H     0.28470   0.91079   0.16887   0.00000  Uiso   1.00
H1616  H     0.29811   0.89141   0.15942   0.00000  Uiso   1.00
H1617  H     0.32810   0.89612   0.19241   0.00000  Uiso   1.00
H1618  H     0.31484   0.91563   0.20168   0.00000  Uiso   1.00
H1619  H     0.30390   0.86768   0.16527   0.00000  Uiso   1.00
H1620  H     0.31697   0.84772   0.15660   0.00000  Uiso   1.00
H1621  H     0.35535   0.86944   0.16418   0.00000  Uiso   1.00
H1622  H     0.34233   0.88952   0.17278   0.00000  Uiso   1.00
H1623  H     0.54937   0.74688   0.73383   0.00000  Uiso   1.00
H1624  H     0.54942   0.76716   0.75167   0.00000  Uiso   1.00
H1625  H     0.48650   0.78020   0.79148   0.00000  Uiso   1.00
H1626  H     0.51355   0.70544   0.72683   0.00000  Uiso   1.00
H1627  H     0.95056   0.23253   0.25081   0.00000  Uiso   1.00
H1628  H     0.95057   0.25231   0.23249   0.00000  Uiso   1.00
H1629  H     0.01350   0.29318   0.22371   0.00000  Uiso   1.00
H1630  H     0.98650   0.22054   0.29085   0.00000  Uiso   1.00
C1631  C     0.72864   0.53495   0.72357   0.00000  Uiso   1.00
C1632  C     0.71413   0.53572   0.72278   0.00000  Uiso   1.00
C1633  C     0.70780   0.54663   0.71559   0.00000  Uiso   1.00
C1634  C     0.71585   0.55702   0.70938   0.00000  Uiso   1.00
C1635  C     0.73043   0.55600   0.70986   0.00000  Uiso   1.00
C1636  C     0.73676   0.54502   0.71691   0.00000  Uiso   1.00
N1637  N     0.70893   0.56841   0.70268   0.00000  Uiso   1.00
C1638  C     0.71411   0.58080   0.70132   0.00000  Uiso   1.00
C1639  C     0.70617   0.59200   0.69453   0.00000  Uiso   1.00
C1640  C     0.71085   0.60573   0.69571   0.00000  Uiso   1.00
C1641  C     0.70339   0.61660   0.68967   0.00000  Uiso   1.00
C1642  C     0.69114   0.61395   0.68215   0.00000  Uiso   1.00
C1643  C     0.68656   0.60014   0.68085   0.00000  Uiso   1.00
C1644  C     0.69396   0.58927   0.68702   0.00000  Uiso   1.00
C1645  C     0.68314   0.62561   0.67591   0.00000  Uiso   1.00
C1646  C     0.69004   0.63720   0.67032   0.00000  Uiso   1.00
C1647  C     0.68255   0.64845   0.66509   0.00000  Uiso   1.00
C1648  C     0.66797   0.64832   0.66513   0.00000  Uiso   1.00
C1649  C     0.66104   0.63662   0.67040   0.00000  Uiso   1.00
C1650  C     0.66853   0.62542   0.67579   0.00000  Uiso   1.00
C1651  C     0.22602   0.53492   0.22419   0.00000  Uiso   1.00
C1652  C     0.21427   0.54143   0.22978   0.00000  Uiso   1.00
C1653  C     0.20758   0.55200   0.22244   0.00000  Uiso   1.00
C1654  C     0.21252   0.55629   0.20945   0.00000  Uiso   1.00
C1655  C     0.22423   0.54959   0.20374   0.00000  Uiso   1.00
C1656  C     0.23091   0.53900   0.21110   0.00000  Uiso   1.00
N1657  N     0.20532   0.56741   0.20256   0.00000  Uiso   1.00
C1658  C     0.20906   0.57377   0.19126   0.00000  Uiso   1.00
C1659  C     0.20065   0.58528   0.18561   0.00000  Uiso   1.00
C1660  C     0.20518   0.59226   0.17366   0.00000  Uiso   1.00
C1661  C     0.19759   0.60341   0.16832   0.00000  Uiso   1.00
C1662  C     0.18529   0.60781   0.17483   0.00000  Uiso   1.00
C1663  C     0.18068   0.60070   0.18673   0.00000  Uiso   1.00
C1664  C     0.18829   0.58956   0.19207   0.00000  Uiso   1.00
C1665  C     0.17742   0.61990   0.16939   0.00000  Uiso   1.00
C1666  C     0.18447   0.63180   0.16472   0.00000  Uiso   1.00
C1667  C     0.17708   0.64330   0.15988   0.00000  Uiso   1.00
C1668  C     0.16250   0.64315   0.15958   0.00000  Uiso   1.00
C1669  C     0.15545   0.63124   0.16415   0.00000  Uiso   1.00
C1670  C     0.16283   0.61973   0.16903   0.00000  Uiso   1.00
C1671  C     0.22596   0.03483   0.72479   0.00000  Uiso   1.00
C1672  C     0.21242   0.03878   0.72840   0.00000  Uiso   1.00
C1673  C     0.20569   0.04931   0.72104   0.00000  Uiso   1.00
C1674  C     0.21229   0.05601   0.70995   0.00000  Uiso   1.00
C1675  C     0.22592   0.05203   0.70635   0.00000  Uiso   1.00
C1676  C     0.23265   0.04149   0.71371   0.00000  Uiso   1.00
N1677  N     0.20498   0.06706   0.70306   0.00000  Uiso   1.00
C1678  C     0.20850   0.07311   0.69152   0.00000  Uiso   1.00
C1679  C     0.20018   0.08470   0.68590   0.00000  Uiso   1.00
C1680  C     0.20451   0.09136   0.67369   0.00000  Uiso   1.00
C1681  C     0.19699   0.10257   0.66836   0.00000  Uiso   1.00
C1682  C     0.18497   0.10733   0.67513   0.00000  Uiso   1.00
C1683  C     0.18057   0.10055   0.68728   0.00000  Uiso   1.00
C1684  C     0.18810   0.08936   0.69263   0.00000  Uiso   1.00
C1685  C     0.17718   0.11946   0.66968   0.00000  Uiso   1.00
C1686  C     0.18430   0.13118   0.66470   0.00000  Uiso   1.00
C1687  C     0.17698   0.14274   0.65986   0.00000  Uiso   1.00
C1688  C     0.16239   0.14280   0.65986   0.00000  Uiso   1.00
C1689  C     0.15527   0.13104   0.66472   0.00000  Uiso   1.00
C1690  C     0.16258   0.11949   0.66960   0.00000  Uiso   1.00
C1691  C     0.72685   0.03485   0.22426   0.00000  Uiso   1.00
C1692  C     0.71529   0.04149   0.23008   0.00000  Uiso   1.00
C1693  C     0.70851   0.05206   0.22281   0.00000  Uiso   1.00
C1694  C     0.71319   0.05622   0.20968   0.00000  Uiso   1.00
C1695  C     0.72469   0.04936   0.20374   0.00000  Uiso   1.00
C1696  C     0.73145   0.03878   0.21102   0.00000  Uiso   1.00
N1697  N     0.70595   0.06737   0.20287   0.00000  Uiso   1.00
C1698  C     0.70972   0.07381   0.19162   0.00000  Uiso   1.00
C1699  C     0.70129   0.08531   0.18599   0.00000  Uiso   1.00
C1700  C     0.70581   0.09232   0.17405   0.00000  Uiso   1.00
C1701  C     0.69818   0.10344   0.16870   0.00000  Uiso   1.00
C1702  C     0.68585   0.10778   0.17519   0.00000  Uiso   1.00
C1703  C     0.68126   0.10067   0.18708   0.00000  Uiso   1.00
C1704  C     0.68890   0.08955   0.19243   0.00000  Uiso   1.00
C1705  C     0.67792   0.11981   0.16971   0.00000  Uiso   1.00
C1706  C     0.68488   0.13172   0.16493   0.00000  Uiso   1.00
C1707  C     0.67743   0.14314   0.16000   0.00000  Uiso   1.00
C1708  C     0.66286   0.14291   0.15971   0.00000  Uiso   1.00
C1709  C     0.65588   0.13100   0.16441   0.00000  Uiso   1.00
C1710  C     0.66332   0.11957   0.16936   0.00000  Uiso   1.00
C1711  C     0.45986   0.24852   0.73830   0.00000  Uiso   1.00
C1712  C     0.47316   0.25403   0.73851   0.00000  Uiso   1.00
N1713  N     0.48166   0.24546   0.74567   0.00000  Uiso   1.00
C1714  C     0.47316   0.23718   0.75314   0.00000  Uiso   1.00
C1715  C     0.45984   0.23780   0.74768   0.00000  Uiso   1.00
C1716  C     0.47610   0.23215   0.76670   0.00000  Uiso   1.00
C1717  C     0.48883   0.23437   0.77380   0.00000  Uiso   1.00
C1718  C     0.50712   0.22667   0.78529   0.00000  Uiso   1.00
C1719  C     0.47611   0.26815   0.73540   0.00000  Uiso   1.00
C1720  C     0.48885   0.27486   0.73852   0.00000  Uiso   1.00
C1721  C     0.49287   0.28737   0.73261   0.00000  Uiso   1.00
C1722  C     0.04017   0.76270   0.24661   0.00000  Uiso   1.00
C1723  C     0.02683   0.76320   0.25202   0.00000  Uiso   1.00
N1724  N     0.01833   0.75516   0.24428   0.00000  Uiso   1.00
C1725  C     0.02683   0.74681   0.23686   0.00000  Uiso   1.00
C1726  C     0.04017   0.75225   0.23694   0.00000  Uiso   1.00
C1727  C     0.02387   0.73281   0.23327   0.00000  Uiso   1.00
C1728  C     0.01116   0.72597   0.23630   0.00000  Uiso   1.00
C1729  C     0.99288   0.71371   0.22989   0.00000  Uiso   1.00
C1730  C     0.02388   0.76786   0.26571   0.00000  Uiso   1.00
C1731  C     0.01116   0.76541   0.27276   0.00000  Uiso   1.00
C1732  C     0.00712   0.77277   0.28446   0.00000  Uiso   1.00
N1733  N     0.15487   0.65516   0.15483   0.00000  Uiso   1.00
H1734  H     0.70776   0.52796   0.72785   0.00000  Uiso   1.00
H1735  H     0.69658   0.54720   0.71517   0.00000  Uiso   1.00
H1736  H     0.73695   0.56359   0.70476   0.00000  Uiso   1.00
H1737  H     0.74798   0.54447   0.71739   0.00000  Uiso   1.00
H1738  H     0.72408   0.58332   0.70587   0.00000  Uiso   1.00
H1739  H     0.72019   0.60809   0.70151   0.00000  Uiso   1.00
H1740  H     0.70709   0.62710   0.69114   0.00000  Uiso   1.00
H1741  H     0.67730   0.59770   0.67495   0.00000  Uiso   1.00
H1742  H     0.69017   0.57875   0.68586   0.00000  Uiso   1.00
H1743  H     0.70127   0.63761   0.66999   0.00000  Uiso   1.00
H1744  H     0.68817   0.65737   0.66117   0.00000  Uiso   1.00
H1745  H     0.64981   0.63625   0.67051   0.00000  Uiso   1.00
H1746  H     0.66286   0.61678   0.68018   0.00000  Uiso   1.00
H1747  H     0.21036   0.53838   0.23988   0.00000  Uiso   1.00
H1748  H     0.19857   0.55698   0.22694   0.00000  Uiso   1.00
H1749  H     0.22830   0.55234   0.19367   0.00000  Uiso   1.00
H1750  H     0.23993   0.53399   0.20662   0.00000  Uiso   1.00
H1751  H     0.21856   0.57105   0.18595   0.00000  Uiso   1.00
H1752  H     0.21466   0.58912   0.16847   0.00000  Uiso   1.00
H1753  H     0.20131   0.60856   0.15904   0.00000  Uiso   1.00
H1754  H     0.17135   0.60395   0.19208   0.00000  Uiso   1.00
H1755  H     0.18454   0.58440   0.20133   0.00000  Uiso   1.00
H1756  H     0.19569   0.63232   0.16507   0.00000  Uiso   1.00
H1757  H     0.18274   0.65243   0.15656   0.00000  Uiso   1.00
H1758  H     0.14422   0.63085   0.16390   0.00000  Uiso   1.00
H1759  H     0.15713   0.61065   0.17239   0.00000  Uiso   1.00
H1760  H     0.20713   0.03375   0.73695   0.00000  Uiso   1.00
H1761  H     0.19527   0.05232   0.72401   0.00000  Uiso   1.00
H1762  H     0.23156   0.05712   0.69811   0.00000  Uiso   1.00
H1763  H     0.24315   0.03861   0.71090   0.00000  Uiso   1.00
H1764  H     0.21756   0.06980   0.68577   0.00000  Uiso   1.00
H1765  H     0.21377   0.08793   0.66830   0.00000  Uiso   1.00
H1766  H     0.20054   0.10748   0.65888   0.00000  Uiso   1.00
H1767  H     0.17144   0.10409   0.69281   0.00000  Uiso   1.00
H1768  H     0.18450   0.08445   0.70208   0.00000  Uiso   1.00
H1769  H     0.19553   0.13155   0.66482   0.00000  Uiso   1.00
H1770  H     0.18270   0.15175   0.65633   0.00000  Uiso   1.00
H1771  H     0.14403   0.13081   0.66469   0.00000  Uiso   1.00
H1772  H     0.15682   0.11054   0.67321   0.00000  Uiso   1.00
H1773  H     0.71160   0.03855   0.24029   0.00000  Uiso   1.00
H1774  H     0.69965   0.05716   0.22748   0.00000  Uiso   1.00
H1775  H     0.72850   0.05197   0.19353   0.00000  Uiso   1.00
H1776  H     0.74031   0.03366   0.20636   0.00000  Uiso   1.00
H1777  H     0.71927   0.07118   0.18636   0.00000  Uiso   1.00
H1778  H     0.71530   0.08921   0.16887   0.00000  Uiso   1.00
H1779  H     0.70189   0.10859   0.15942   0.00000  Uiso   1.00
H1780  H     0.67190   0.10388   0.19241   0.00000  Uiso   1.00
H1781  H     0.68516   0.08437   0.20168   0.00000  Uiso   1.00
H1782  H     0.69610   0.13232   0.16527   0.00000  Uiso   1.00
H1783  H     0.68303   0.15228   0.15660   0.00000  Uiso   1.00
H1784  H     0.64465   0.13056   0.16418   0.00000  Uiso   1.00
H1785  H     0.65767   0.11048   0.17278   0.00000  Uiso   1.00
H1786  H     0.45063   0.25312   0.73383   0.00000  Uiso   1.00
H1787  H     0.45058   0.23284   0.75167   0.00000  Uiso   1.00
H1788  H     0.51350   0.21980   0.79148   0.00000  Uiso   1.00
H1789  H     0.48645   0.29456   0.72683   0.00000  Uiso   1.00
H1790  H     0.04944   0.76747   0.25081   0.00000  Uiso   1.00
H1791  H     0.04943   0.74769   0.23249   0.00000  Uiso   1.00
H1792  H     0.98650   0.70682   0.22371   0.00000  Uiso   1.00
H1793  H     0.01350   0.77946   0.29085   0.00000  Uiso   1.00
C1794  C     0.27136   0.53495   0.27643   0.00000  Uiso   1.00
C1795  C     0.28587   0.53572   0.27722   0.00000  Uiso   1.00
C1796  C     0.29220   0.54663   0.28441   0.00000  Uiso   1.00
C1797  C     0.28415   0.55702   0.29062   0.00000  Uiso   1.00
C1798  C     0.26957   0.55600   0.29014   0.00000  Uiso   1.00
C1799  C     0.26324   0.54502   0.28309   0.00000  Uiso   1.00
N1800  N     0.29107   0.56841   0.29732   0.00000  Uiso   1.00
C1801  C     0.28589   0.58080   0.29868   0.00000  Uiso   1.00
C1802  C     0.29383   0.59200   0.30547   0.00000  Uiso   1.00
C1803  C     0.28915   0.60573   0.30429   0.00000  Uiso   1.00
C1804  C     0.29661   0.61660   0.31033   0.00000  Uiso   1.00
C1805  C     0.30886   0.61395   0.31785   0.00000  Uiso   1.00
C1806  C     0.31344   0.60014   0.31915   0.00000  Uiso   1.00
C1807  C     0.30604   0.58927   0.31298   0.00000  Uiso   1.00
C1808  C     0.31686   0.62561   0.32409   0.00000  Uiso   1.00
C1809  C     0.30996   0.63720   0.32968   0.00000  Uiso   1.00
C1810  C     0.31745   0.64845   0.33491   0.00000  Uiso   1.00
C1811  C     0.33203   0.64832   0.33487   0.00000  Uiso   1.00
C1812  C     0.33896   0.63662   0.32960   0.00000  Uiso   1.00
C1813  C     0.33147   0.62542   0.32421   0.00000  Uiso   1.00
C1814  C     0.77398   0.53492   0.77581   0.00000  Uiso   1.00
C1815  C     0.78573   0.54143   0.77022   0.00000  Uiso   1.00
C1816  C     0.79242   0.55200   0.77756   0.00000  Uiso   1.00
C1817  C     0.78748   0.55629   0.79055   0.00000  Uiso   1.00
C1818  C     0.77577   0.54959   0.79626   0.00000  Uiso   1.00
C1819  C     0.76909   0.53900   0.78890   0.00000  Uiso   1.00
N1820  N     0.79468   0.56741   0.79744   0.00000  Uiso   1.00
C1821  C     0.79094   0.57377   0.80874   0.00000  Uiso   1.00
C1822  C     0.79935   0.58528   0.81439   0.00000  Uiso   1.00
C1823  C     0.79482   0.59226   0.82634   0.00000  Uiso   1.00
C1824  C     0.80241   0.60341   0.83168   0.00000  Uiso   1.00
C1825  C     0.81471   0.60781   0.82517   0.00000  Uiso   1.00
C1826  C     0.81932   0.60070   0.81327   0.00000  Uiso   1.00
C1827  C     0.81171   0.58956   0.80793   0.00000  Uiso   1.00
C1828  C     0.82258   0.61990   0.83061   0.00000  Uiso   1.00
C1829  C     0.81553   0.63180   0.83528   0.00000  Uiso   1.00
C1830  C     0.82292   0.64330   0.84012   0.00000  Uiso   1.00
C1831  C     0.83750   0.64315   0.84042   0.00000  Uiso   1.00
C1832  C     0.84455   0.63124   0.83585   0.00000  Uiso   1.00
C1833  C     0.83717   0.61973   0.83097   0.00000  Uiso   1.00
C1834  C     0.77404   0.03483   0.27521   0.00000  Uiso   1.00
C1835  C     0.78758   0.03878   0.27160   0.00000  Uiso   1.00
C1836  C     0.79431   0.04931   0.27896   0.00000  Uiso   1.00
C1837  C     0.78771   0.05601   0.29005   0.00000  Uiso   1.00
C1838  C     0.77408   0.05203   0.29365   0.00000  Uiso   1.00
C1839  C     0.76735   0.04149   0.28629   0.00000  Uiso   1.00
N1840  N     0.79502   0.06706   0.29694   0.00000  Uiso   1.00
C1841  C     0.79150   0.07311   0.30848   0.00000  Uiso   1.00
C1842  C     0.79982   0.08470   0.31410   0.00000  Uiso   1.00
C1843  C     0.79549   0.09136   0.32631   0.00000  Uiso   1.00
C1844  C     0.80301   0.10257   0.33164   0.00000  Uiso   1.00
C1845  C     0.81503   0.10733   0.32487   0.00000  Uiso   1.00
C1846  C     0.81943   0.10055   0.31272   0.00000  Uiso   1.00
C1847  C     0.81190   0.08936   0.30737   0.00000  Uiso   1.00
C1848  C     0.82282   0.11946   0.33032   0.00000  Uiso   1.00
C1849  C     0.81570   0.13118   0.33530   0.00000  Uiso   1.00
C1850  C     0.82302   0.14274   0.34014   0.00000  Uiso   1.00
C1851  C     0.83761   0.14280   0.34014   0.00000  Uiso   1.00
C1852  C     0.84473   0.13104   0.33528   0.00000  Uiso   1.00
C1853  C     0.83742   0.11949   0.33040   0.00000  Uiso   1.00
C1854  C     0.27315   0.03485   0.77574   0.00000  Uiso   1.00
C1855  C     0.28471   0.04149   0.76992   0.00000  Uiso   1.00
C1856  C     0.29149   0.05206   0.77719   0.00000  Uiso   1.00
C1857  C     0.28681   0.05622   0.79032   0.00000  Uiso   1.00
C1858  C     0.27531   0.04936   0.79626   0.00000  Uiso   1.00
C1859  C     0.26855   0.03878   0.78898   0.00000  Uiso   1.00
N1860  N     0.29405   0.06737   0.79713   0.00000  Uiso   1.00
C1861  C     0.29028   0.07381   0.80838   0.00000  Uiso   1.00
C1862  C     0.29871   0.08531   0.81401   0.00000  Uiso   1.00
C1863  C     0.29419   0.09232   0.82595   0.00000  Uiso   1.00
C1864  C     0.30182   0.10344   0.83130   0.00000  Uiso   1.00
C1865  C     0.31415   0.10778   0.82481   0.00000  Uiso   1.00
C1866  C     0.31874   0.10067   0.81292   0.00000  Uiso   1.00
C1867  C     0.31110   0.08955   0.80757   0.00000  Uiso   1.00
C1868  C     0.32208   0.11981   0.83029   0.00000  Uiso   1.00
C1869  C     0.31512   0.13172   0.83507   0.00000  Uiso   1.00
C1870  C     0.32257   0.14314   0.84000   0.00000  Uiso   1.00
C1871  C     0.33714   0.14291   0.84029   0.00000  Uiso   1.00
C1872  C     0.34412   0.13100   0.83559   0.00000  Uiso   1.00
C1873  C     0.33668   0.11957   0.83064   0.00000  Uiso   1.00
C1874  C     0.54014   0.24852   0.26170   0.00000  Uiso   1.00
C1875  C     0.52684   0.25403   0.26149   0.00000  Uiso   1.00
N1876  N     0.51834   0.24546   0.25433   0.00000  Uiso   1.00
C1877  C     0.52684   0.23718   0.24686   0.00000  Uiso   1.00
C1878  C     0.54016   0.23780   0.25232   0.00000  Uiso   1.00
C1879  C     0.52390   0.23215   0.23330   0.00000  Uiso   1.00
C1880  C     0.51117   0.23437   0.22620   0.00000  Uiso   1.00
C1881  C     0.49288   0.22667   0.21471   0.00000  Uiso   1.00
C1882  C     0.52389   0.26815   0.26460   0.00000  Uiso   1.00
C1883  C     0.51115   0.27486   0.26148   0.00000  Uiso   1.00
C1884  C     0.50713   0.28737   0.26739   0.00000  Uiso   1.00
C1885  C     0.95983   0.76270   0.75339   0.00000  Uiso   1.00
C1886  C     0.97317   0.76320   0.74798   0.00000  Uiso   1.00
N1887  N     0.98167   0.75516   0.75572   0.00000  Uiso   1.00
C1888  C     0.97317   0.74681   0.76314   0.00000  Uiso   1.00
C1889  C     0.95983   0.75225   0.76306   0.00000  Uiso   1.00
C1890  C     0.97613   0.73281   0.76673   0.00000  Uiso   1.00
C1891  C     0.98884   0.72597   0.76370   0.00000  Uiso   1.00
C1892  C     0.00712   0.71371   0.77011   0.00000  Uiso   1.00
C1893  C     0.97612   0.76786   0.73429   0.00000  Uiso   1.00
C1894  C     0.98884   0.76541   0.72724   0.00000  Uiso   1.00
C1895  C     0.99288   0.77277   0.71554   0.00000  Uiso   1.00
N1896  N     0.84513   0.65516   0.84517   0.00000  Uiso   1.00
H1897  H     0.29224   0.52796   0.27215   0.00000  Uiso   1.00
H1898  H     0.30342   0.54720   0.28483   0.00000  Uiso   1.00
H1899  H     0.26305   0.56359   0.29524   0.00000  Uiso   1.00
H1900  H     0.25202   0.54447   0.28261   0.00000  Uiso   1.00
H1901  H     0.27592   0.58332   0.29413   0.00000  Uiso   1.00
H1902  H     0.27981   0.60809   0.29849   0.00000  Uiso   1.00
H1903  H     0.29291   0.62710   0.30886   0.00000  Uiso   1.00
H1904  H     0.32270   0.59770   0.32505   0.00000  Uiso   1.00
H1905  H     0.30983   0.57875   0.31414   0.00000  Uiso   1.00
H1906  H     0.29873   0.63761   0.33001   0.00000  Uiso   1.00
H1907  H     0.31183   0.65737   0.33883   0.00000  Uiso   1.00
H1908  H     0.35019   0.63625   0.32949   0.00000  Uiso   1.00
H1909  H     0.33714   0.61678   0.31982   0.00000  Uiso   1.00
H1910  H     0.78964   0.53838   0.76012   0.00000  Uiso   1.00
H1911  H     0.80143   0.55698   0.77306   0.00000  Uiso   1.00
H1912  H     0.77170   0.55234   0.80633   0.00000  Uiso   1.00
H1913  H     0.76007   0.53399   0.79338   0.00000  Uiso   1.00
H1914  H     0.78144   0.57105   0.81405   0.00000  Uiso   1.00
H1915  H     0.78534   0.58912   0.83153   0.00000  Uiso   1.00
H1916  H     0.79869   0.60856   0.84096   0.00000  Uiso   1.00
H1917  H     0.82865   0.60395   0.80792   0.00000  Uiso   1.00
H1918  H     0.81546   0.58440   0.79867   0.00000  Uiso   1.00
H1919  H     0.80431   0.63232   0.83493   0.00000  Uiso   1.00
H1920  H     0.81726   0.65243   0.84344   0.00000  Uiso   1.00
H1921  H     0.85578   0.63085   0.83610   0.00000  Uiso   1.00
H1922  H     0.84287   0.61065   0.82761   0.00000  Uiso   1.00
H1923  H     0.79287   0.03375   0.26305   0.00000  Uiso   1.00
H1924  H     0.80473   0.05232   0.27599   0.00000  Uiso   1.00
H1925  H     0.76844   0.05712   0.30189   0.00000  Uiso   1.00
H1926  H     0.75685   0.03861   0.28910   0.00000  Uiso   1.00
H1927  H     0.78244   0.06980   0.31423   0.00000  Uiso   1.00
H1928  H     0.78623   0.08793   0.33170   0.00000  Uiso   1.00
H1929  H     0.79946   0.10748   0.34112   0.00000  Uiso   1.00
H1930  H     0.82856   0.10409   0.30719   0.00000  Uiso   1.00
H1931  H     0.81550   0.08445   0.29792   0.00000  Uiso   1.00
H1932  H     0.80447   0.13155   0.33518   0.00000  Uiso   1.00
H1933  H     0.81730   0.15175   0.34367   0.00000  Uiso   1.00
H1934  H     0.85597   0.13081   0.33531   0.00000  Uiso   1.00
H1935  H     0.84318   0.11054   0.32679   0.00000  Uiso   1.00
H1936  H     0.28840   0.03855   0.75971   0.00000  Uiso   1.00
H1937  H     0.30035   0.05716   0.77252   0.00000  Uiso   1.00
H1938  H     0.27150   0.05197   0.80647   0.00000  Uiso   1.00
H1939  H     0.25969   0.03366   0.79364   0.00000  Uiso   1.00
H1940  H     0.28073   0.07118   0.81364   0.00000  Uiso   1.00
H1941  H     0.28470   0.08921   0.83113   0.00000  Uiso   1.00
H1942  H     0.29811   0.10859   0.84058   0.00000  Uiso   1.00
H1943  H     0.32810   0.10388   0.80759   0.00000  Uiso   1.00
H1944  H     0.31484   0.08437   0.79832   0.00000  Uiso   1.00
H1945  H     0.30390   0.13232   0.83473   0.00000  Uiso   1.00
H1946  H     0.31697   0.15228   0.84340   0.00000  Uiso   1.00
H1947  H     0.35535   0.13056   0.83582   0.00000  Uiso   1.00
H1948  H     0.34233   0.11048   0.82722   0.00000  Uiso   1.00
H1949  H     0.54937   0.25312   0.26617   0.00000  Uiso   1.00
H1950  H     0.54942   0.23284   0.24833   0.00000  Uiso   1.00
H1951  H     0.48650   0.21980   0.20852   0.00000  Uiso   1.00
H1952  H     0.51355   0.29456   0.27317   0.00000  Uiso   1.00
H1953  H     0.95056   0.76747   0.74919   0.00000  Uiso   1.00
H1954  H     0.95057   0.74769   0.76751   0.00000  Uiso   1.00
H1955  H     0.01350   0.70682   0.77629   0.00000  Uiso   1.00
H1956  H     0.98650   0.77946   0.70915   0.00000  Uiso   1.00
C1957  C     0.72357   0.27136   0.53495   0.00000  Uiso   1.00
C1958  C     0.72278   0.28587   0.53572   0.00000  Uiso   1.00
C1959  C     0.71559   0.29220   0.54663   0.00000  Uiso   1.00
C1960  C     0.70938   0.28415   0.55702   0.00000  Uiso   1.00
C1961  C     0.70986   0.26957   0.55600   0.00000  Uiso   1.00
C1962  C     0.71691   0.26324   0.54502   0.00000  Uiso   1.00
N1963  N     0.70268   0.29107   0.56841   0.00000  Uiso   1.00
C1964  C     0.70132   0.28589   0.58080   0.00000  Uiso   1.00
C1965  C     0.69453   0.29383   0.59200   0.00000  Uiso   1.00
C1966  C     0.69571   0.28915   0.60573   0.00000  Uiso   1.00
C1967  C     0.68967   0.29661   0.61660   0.00000  Uiso   1.00
C1968  C     0.68215   0.30886   0.61395   0.00000  Uiso   1.00
C1969  C     0.68085   0.31344   0.60014   0.00000  Uiso   1.00
C1970  C     0.68702   0.30604   0.58927   0.00000  Uiso   1.00
C1971  C     0.67591   0.31686   0.62561   0.00000  Uiso   1.00
C1972  C     0.67032   0.30996   0.63720   0.00000  Uiso   1.00
C1973  C     0.66509   0.31745   0.64845   0.00000  Uiso   1.00
C1974  C     0.66513   0.33203   0.64832   0.00000  Uiso   1.00
C1975  C     0.67040   0.33896   0.63662   0.00000  Uiso   1.00
C1976  C     0.67579   0.33147   0.62542   0.00000  Uiso   1.00
C1977  C     0.22419   0.77398   0.53492   0.00000  Uiso   1.00
C1978  C     0.22978   0.78573   0.54143   0.00000  Uiso   1.00
C1979  C     0.22244   0.79242   0.55200   0.00000  Uiso   1.00
C1980  C     0.20945   0.78748   0.55629   0.00000  Uiso   1.00
C1981  C     0.20374   0.77577   0.54959   0.00000  Uiso   1.00
C1982  C     0.21110   0.76909   0.53900   0.00000  Uiso   1.00
N1983  N     0.20256   0.79468   0.56741   0.00000  Uiso   1.00
C1984  C     0.19126   0.79094   0.57377   0.00000  Uiso   1.00
C1985  C     0.18561   0.79935   0.58528   0.00000  Uiso   1.00
C1986  C     0.17366   0.79482   0.59226   0.00000  Uiso   1.00
C1987  C     0.16832   0.80241   0.60341   0.00000  Uiso   1.00
C1988  C     0.17483   0.81471   0.60781   0.00000  Uiso   1.00
C1989  C     0.18673   0.81932   0.60070   0.00000  Uiso   1.00
C1990  C     0.19207   0.81171   0.58956   0.00000  Uiso   1.00
C1991  C     0.16939   0.82258   0.61990   0.00000  Uiso   1.00
C1992  C     0.16472   0.81553   0.63180   0.00000  Uiso   1.00
C1993  C     0.15988   0.82292   0.64330   0.00000  Uiso   1.00
C1994  C     0.15958   0.83750   0.64315   0.00000  Uiso   1.00
C1995  C     0.16415   0.84455   0.63124   0.00000  Uiso   1.00
C1996  C     0.16903   0.83717   0.61973   0.00000  Uiso   1.00
C1997  C     0.72479   0.77404   0.03483   0.00000  Uiso   1.00
C1998  C     0.72840   0.78758   0.03878   0.00000  Uiso   1.00
C1999  C     0.72104   0.79431   0.04931   0.00000  Uiso   1.00
C2000  C     0.70995   0.78771   0.05601   0.00000  Uiso   1.00
C2001  C     0.70635   0.77408   0.05203   0.00000  Uiso   1.00
C2002  C     0.71371   0.76735   0.04149   0.00000  Uiso   1.00
N2003  N     0.70306   0.79502   0.06706   0.00000  Uiso   1.00
C2004  C     0.69152   0.79150   0.07311   0.00000  Uiso   1.00
C2005  C     0.68590   0.79982   0.08470   0.00000  Uiso   1.00
C2006  C     0.67369   0.79549   0.09136   0.00000  Uiso   1.00
C2007  C     0.66836   0.80301   0.10257   0.00000  Uiso   1.00
C2008  C     0.67513   0.81503   0.10733   0.00000  Uiso   1.00
C2009  C     0.68728   0.81943   0.10055   0.00000  Uiso   1.00
C2010  C     0.69263   0.81190   0.08936   0.00000  Uiso   1.00
C2011  C     0.66968   0.82282   0.11946   0.00000  Uiso   1.00
C2012  C     0.66470   0.81570   0.13118   0.00000  Uiso   1.00
C2013  C     0.65986   0.82302   0.14274   0.00000  Uiso   1.00
C2014  C     0.65986   0.83761   0.14280   0.00000  Uiso   1.00
C2015  C     0.66472   0.84473   0.13104   0.00000  Uiso   1.00
C2016  C     0.66960   0.83742   0.11949   0.00000  Uiso   1.00
C2017  C     0.22426   0.27315   0.03485   0.00000  Uiso   1.00
C2018  C     0.23008   0.28471   0.04149   0.00000  Uiso   1.00
C2019  C     0.22281   0.29149   0.05206   0.00000  Uiso   1.00
C2020  C     0.20968   0.28681   0.05622   0.00000  Uiso   1.00
C2021  C     0.20374   0.27531   0.04936   0.00000  Uiso   1.00
C2022  C     0.21102   0.26855   0.03878   0.00000  Uiso   1.00
N2023  N     0.20287   0.29405   0.06737   0.00000  Uiso   1.00
C2024  C     0.19162   0.29028   0.07381   0.00000  Uiso   1.00
C2025  C     0.18599   0.29871   0.08531   0.00000  Uiso   1.00
C2026  C     0.17405   0.29419   0.09232   0.00000  Uiso   1.00
C2027  C     0.16870   0.30182   0.10344   0.00000  Uiso   1.00
C2028  C     0.17519   0.31415   0.10778   0.00000  Uiso   1.00
C2029  C     0.18708   0.31874   0.10067   0.00000  Uiso   1.00
C2030  C     0.19243   0.31110   0.08955   0.00000  Uiso   1.00
C2031  C     0.16971   0.32208   0.11981   0.00000  Uiso   1.00
C2032  C     0.16493   0.31512   0.13172   0.00000  Uiso   1.00
C2033  C     0.16000   0.32257   0.14314   0.00000  Uiso   1.00
C2034  C     0.15971   0.33714   0.14291   0.00000  Uiso   1.00
C2035  C     0.16441   0.34412   0.13100   0.00000  Uiso   1.00
C2036  C     0.16936   0.33668   0.11957   0.00000  Uiso   1.00
C2037  C     0.73830   0.54014   0.24852   0.00000  Uiso   1.00
C2038  C     0.73851   0.52684   0.25403   0.00000  Uiso   1.00
N2039  N     0.74567   0.51834   0.24546   0.00000  Uiso   1.00
C2040  C     0.75314   0.52684   0.23718   0.00000  Uiso   1.00
C2041  C     0.74768   0.54016   0.23780   0.00000  Uiso   1.00
C2042  C     0.76670   0.52390   0.23215   0.00000  Uiso   1.00
C2043  C     0.77380   0.51117   0.23437   0.00000  Uiso   1.00
C2044  C     0.78529   0.49288   0.22667   0.00000  Uiso   1.00
C2045  C     0.73540   0.52389   0.26815   0.00000  Uiso   1.00
C2046  C     0.73852   0.51115   0.27486   0.00000  Uiso   1.00
C2047  C     0.73261   0.50713   0.28737   0.00000  Uiso   1.00
C2048  C     0.24661   0.95983   0.76270   0.00000  Uiso   1.00
C2049  C     0.25202   0.97317   0.76320   0.00000  Uiso   1.00
N2050  N     0.24428   0.98167   0.75516   0.00000  Uiso   1.00
C2051  C     0.23686   0.97317   0.74681   0.00000  Uiso   1.00
C2052  C     0.23694   0.95983   0.75225   0.00000  Uiso   1.00
C2053  C     0.23327   0.97613   0.73281   0.00000  Uiso   1.00
C2054  C     0.23630   0.98884   0.72597   0.00000  Uiso   1.00
C2055  C     0.22989   0.00712   0.71371   0.00000  Uiso   1.00
C2056  C     0.26571   0.97612   0.76786   0.00000  Uiso   1.00
C2057  C     0.27276   0.98884   0.76541   0.00000  Uiso   1.00
C2058  C     0.28446   0.99288   0.77277   0.00000  Uiso   1.00
N2059  N     0.15483   0.84513   0.65516   0.00000  Uiso   1.00
H2060  H     0.72785   0.29224   0.52796   0.00000  Uiso   1.00
H2061  H     0.71517   0.30342   0.54720   0.00000  Uiso   1.00
H2062  H     0.70476   0.26305   0.56359   0.00000  Uiso   1.00
H2063  H     0.71739   0.25202   0.54447   0.00000  Uiso   1.00
H2064  H     0.70587   0.27592   0.58332   0.00000  Uiso   1.00
H2065  H     0.70151   0.27981   0.60809   0.00000  Uiso   1.00
H2066  H     0.69114   0.29291   0.62710   0.00000  Uiso   1.00
H2067  H     0.67495   0.32270   0.59770   0.00000  Uiso   1.00
H2068  H     0.68586   0.30983   0.57875   0.00000  Uiso   1.00
H2069  H     0.66999   0.29873   0.63761   0.00000  Uiso   1.00
H2070  H     0.66117   0.31183   0.65737   0.00000  Uiso   1.00
H2071  H     0.67051   0.35019   0.63625   0.00000  Uiso   1.00
H2072  H     0.68018   0.33714   0.61678   0.00000  Uiso   1.00
H2073  H     0.23988   0.78964   0.53838   0.00000  Uiso   1.00
H2074  H     0.22694   0.80143   0.55698   0.00000  Uiso   1.00
H2075  H     0.19367   0.77170   0.55234   0.00000  Uiso   1.00
H2076  H     0.20662   0.76007   0.53399   0.00000  Uiso   1.00
H2077  H     0.18595   0.78144   0.57105   0.00000  Uiso   1.00
H2078  H     0.16847   0.78534   0.58912   0.00000  Uiso   1.00
H2079  H     0.15904   0.79869   0.60856   0.00000  Uiso   1.00
H2080  H     0.19208   0.82865   0.60395   0.00000  Uiso   1.00
H2081  H     0.20133   0.81546   0.58440   0.00000  Uiso   1.00
H2082  H     0.16507   0.80431   0.63232   0.00000  Uiso   1.00
H2083  H     0.15656   0.81726   0.65243   0.00000  Uiso   1.00
H2084  H     0.16390   0.85578   0.63085   0.00000  Uiso   1.00
H2085  H     0.17239   0.84287   0.61065   0.00000  Uiso   1.00
H2086  H     0.73695   0.79287   0.03375   0.00000  Uiso   1.00
H2087  H     0.72401   0.80473   0.05232   0.00000  Uiso   1.00
H2088  H     0.69811   0.76844   0.05712   0.00000  Uiso   1.00
H2089  H     0.71090   0.75685   0.03861   0.00000  Uiso   1.00
H2090  H     0.68577   0.78244   0.06980   0.00000  Uiso   1.00
H2091  H     0.66830   0.78623   0.08793   0.00000  Uiso   1.00
H2092  H     0.65888   0.79946   0.10748   0.00000  Uiso   1.00
H2093  H     0.69281   0.82856   0.10409   0.00000  Uiso   1.00
H2094  H     0.70208   0.81550   0.08445   0.00000  Uiso   1.00
H2095  H     0.66482   0.80447   0.13155   0.00000  Uiso   1.00
H2096  H     0.65633   0.81730   0.15175   0.00000  Uiso   1.00
H2097  H     0.66469   0.85597   0.13081   0.00000  Uiso   1.00
H2098  H     0.67321   0.84318   0.11054   0.00000  Uiso   1.00
H2099  H     0.24029   0.28840   0.03855   0.00000  Uiso   1.00
H2100  H     0.22748   0.30035   0.05716   0.00000  Uiso   1.00
H2101  H     0.19353   0.27150   0.05197   0.00000  Uiso   1.00
H2102  H     0.20636   0.25969   0.03366   0.00000  Uiso   1.00
H2103  H     0.18636   0.28073   0.07118   0.00000  Uiso   1.00
H2104  H     0.16887   0.28470   0.08921   0.00000  Uiso   1.00
H2105  H     0.15942   0.29811   0.10859   0.00000  Uiso   1.00
H2106  H     0.19241   0.32810   0.10388   0.00000  Uiso   1.00
H2107  H     0.20168   0.31484   0.08437   0.00000  Uiso   1.00
H2108  H     0.16527   0.30390   0.13232   0.00000  Uiso   1.00
H2109  H     0.15660   0.31697   0.15228   0.00000  Uiso   1.00
H2110  H     0.16418   0.35535   0.13056   0.00000  Uiso   1.00
H2111  H     0.17278   0.34233   0.11048   0.00000  Uiso   1.00
H2112  H     0.73383   0.54937   0.25312   0.00000  Uiso   1.00
H2113  H     0.75167   0.54942   0.23284   0.00000  Uiso   1.00
H2114  H     0.79148   0.48650   0.21980   0.00000  Uiso   1.00
H2115  H     0.72683   0.51355   0.29456   0.00000  Uiso   1.00
H2116  H     0.25081   0.95056   0.76747   0.00000  Uiso   1.00
H2117  H     0.23249   0.95057   0.74769   0.00000  Uiso   1.00
H2118  H     0.22371   0.01350   0.70682   0.00000  Uiso   1.00
H2119  H     0.29085   0.98650   0.77946   0.00000  Uiso   1.00
C2120  C     0.27643   0.72864   0.53495   0.00000  Uiso   1.00
C2121  C     0.27722   0.71413   0.53572   0.00000  Uiso   1.00
C2122  C     0.28441   0.70780   0.54663   0.00000  Uiso   1.00
C2123  C     0.29062   0.71585   0.55702   0.00000  Uiso   1.00
C2124  C     0.29014   0.73043   0.55600   0.00000  Uiso   1.00
C2125  C     0.28309   0.73676   0.54502   0.00000  Uiso   1.00
N2126  N     0.29732   0.70893   0.56841   0.00000  Uiso   1.00
C2127  C     0.29868   0.71411   0.58080   0.00000  Uiso   1.00
C2128  C     0.30547   0.70617   0.59200   0.00000  Uiso   1.00
C2129  C     0.30429   0.71085   0.60573   0.00000  Uiso   1.00
C2130  C     0.31033   0.70339   0.61660   0.00000  Uiso   1.00
C2131  C     0.31785   0.69114   0.61395   0.00000  Uiso   1.00
C2132  C     0.31915   0.68656   0.60014   0.00000  Uiso   1.00
C2133  C     0.31298   0.69396   0.58927   0.00000  Uiso   1.00
C2134  C     0.32409   0.68314   0.62561   0.00000  Uiso   1.00
C2135  C     0.32968   0.69004   0.63720   0.00000  Uiso   1.00
C2136  C     0.33491   0.68255   0.64845   0.00000  Uiso   1.00
C2137  C     0.33487   0.66797   0.64832   0.00000  Uiso   1.00
C2138  C     0.32960   0.66104   0.63662   0.00000  Uiso   1.00
C2139  C     0.32421   0.66853   0.62542   0.00000  Uiso   1.00
C2140  C     0.77581   0.22602   0.53492   0.00000  Uiso   1.00
C2141  C     0.77022   0.21427   0.54143   0.00000  Uiso   1.00
C2142  C     0.77756   0.20758   0.55200   0.00000  Uiso   1.00
C2143  C     0.79055   0.21252   0.55629   0.00000  Uiso   1.00
C2144  C     0.79626   0.22423   0.54959   0.00000  Uiso   1.00
C2145  C     0.78890   0.23091   0.53900   0.00000  Uiso   1.00
N2146  N     0.79744   0.20532   0.56741   0.00000  Uiso   1.00
C2147  C     0.80874   0.20906   0.57377   0.00000  Uiso   1.00
C2148  C     0.81439   0.20065   0.58528   0.00000  Uiso   1.00
C2149  C     0.82634   0.20518   0.59226   0.00000  Uiso   1.00
C2150  C     0.83168   0.19759   0.60341   0.00000  Uiso   1.00
C2151  C     0.82517   0.18529   0.60781   0.00000  Uiso   1.00
C2152  C     0.81327   0.18068   0.60070   0.00000  Uiso   1.00
C2153  C     0.80793   0.18829   0.58956   0.00000  Uiso   1.00
C2154  C     0.83061   0.17742   0.61990   0.00000  Uiso   1.00
C2155  C     0.83528   0.18447   0.63180   0.00000  Uiso   1.00
C2156  C     0.84012   0.17708   0.64330   0.00000  Uiso   1.00
C2157  C     0.84042   0.16250   0.64315   0.00000  Uiso   1.00
C2158  C     0.83585   0.15545   0.63124   0.00000  Uiso   1.00
C2159  C     0.83097   0.16283   0.61973   0.00000  Uiso   1.00
C2160  C     0.27521   0.22596   0.03483   0.00000  Uiso   1.00
C2161  C     0.27160   0.21242   0.03878   0.00000  Uiso   1.00
C2162  C     0.27896   0.20569   0.04931   0.00000  Uiso   1.00
C2163  C     0.29005   0.21229   0.05601   0.00000  Uiso   1.00
C2164  C     0.29365   0.22592   0.05203   0.00000  Uiso   1.00
C2165  C     0.28629   0.23265   0.04149   0.00000  Uiso   1.00
N2166  N     0.29694   0.20498   0.06706   0.00000  Uiso   1.00
C2167  C     0.30848   0.20850   0.07311   0.00000  Uiso   1.00
C2168  C     0.31410   0.20018   0.08470   0.00000  Uiso   1.00
C2169  C     0.32631   0.20451   0.09136   0.00000  Uiso   1.00
C2170  C     0.33164   0.19699   0.10257   0.00000  Uiso   1.00
C2171  C     0.32487   0.18497   0.10733   0.00000  Uiso   1.00
C2172  C     0.31272   0.18057   0.10055   0.00000  Uiso   1.00
C2173  C     0.30737   0.18810   0.08936   0.00000  Uiso   1.00
C2174  C     0.33032   0.17718   0.11946   0.00000  Uiso   1.00
C2175  C     0.33530   0.18430   0.13118   0.00000  Uiso   1.00
C2176  C     0.34014   0.17698   0.14274   0.00000  Uiso   1.00
C2177  C     0.34014   0.16239   0.14280   0.00000  Uiso   1.00
C2178  C     0.33528   0.15527   0.13104   0.00000  Uiso   1.00
C2179  C     0.33040   0.16258   0.11949   0.00000  Uiso   1.00
C2180  C     0.77574   0.72685   0.03485   0.00000  Uiso   1.00
C2181  C     0.76992   0.71529   0.04149   0.00000  Uiso   1.00
C2182  C     0.77719   0.70851   0.05206   0.00000  Uiso   1.00
C2183  C     0.79032   0.71319   0.05622   0.00000  Uiso   1.00
C2184  C     0.79626   0.72469   0.04936   0.00000  Uiso   1.00
C2185  C     0.78898   0.73145   0.03878   0.00000  Uiso   1.00
N2186  N     0.79713   0.70595   0.06737   0.00000  Uiso   1.00
C2187  C     0.80838   0.70972   0.07381   0.00000  Uiso   1.00
C2188  C     0.81401   0.70129   0.08531   0.00000  Uiso   1.00
C2189  C     0.82595   0.70581   0.09232   0.00000  Uiso   1.00
C2190  C     0.83130   0.69818   0.10344   0.00000  Uiso   1.00
C2191  C     0.82481   0.68585   0.10778   0.00000  Uiso   1.00
C2192  C     0.81292   0.68126   0.10067   0.00000  Uiso   1.00
C2193  C     0.80757   0.68890   0.08955   0.00000  Uiso   1.00
C2194  C     0.83029   0.67792   0.11981   0.00000  Uiso   1.00
C2195  C     0.83507   0.68488   0.13172   0.00000  Uiso   1.00
C2196  C     0.84000   0.67743   0.14314   0.00000  Uiso   1.00
C2197  C     0.84029   0.66286   0.14291   0.00000  Uiso   1.00
C2198  C     0.83559   0.65588   0.13100   0.00000  Uiso   1.00
C2199  C     0.83064   0.66332   0.11957   0.00000  Uiso   1.00
C2200  C     0.26170   0.45986   0.24852   0.00000  Uiso   1.00
C2201  C     0.26149   0.47316   0.25403   0.00000  Uiso   1.00
N2202  N     0.25433   0.48166   0.24546   0.00000  Uiso   1.00
C2203  C     0.24686   0.47316   0.23718   0.00000  Uiso   1.00
C2204  C     0.25232   0.45984   0.23780   0.00000  Uiso   1.00
C2205  C     0.23330   0.47610   0.23215   0.00000  Uiso   1.00
C2206  C     0.22620   0.48883   0.23437   0.00000  Uiso   1.00
C2207  C     0.21471   0.50712   0.22667   0.00000  Uiso   1.00
C2208  C     0.26460   0.47611   0.26815   0.00000  Uiso   1.00
C2209  C     0.26148   0.48885   0.27486   0.00000  Uiso   1.00
C2210  C     0.26739   0.49287   0.28737   0.00000  Uiso   1.00
C2211  C     0.75339   0.04017   0.76270   0.00000  Uiso   1.00
C2212  C     0.74798   0.02683   0.76320   0.00000  Uiso   1.00
N2213  N     0.75572   0.01833   0.75516   0.00000  Uiso   1.00
C2214  C     0.76314   0.02683   0.74681   0.00000  Uiso   1.00
C2215  C     0.76306   0.04017   0.75225   0.00000  Uiso   1.00
C2216  C     0.76673   0.02387   0.73281   0.00000  Uiso   1.00
C2217  C     0.76370   0.01116   0.72597   0.00000  Uiso   1.00
C2218  C     0.77011   0.99288   0.71371   0.00000  Uiso   1.00
C2219  C     0.73429   0.02388   0.76786   0.00000  Uiso   1.00
C2220  C     0.72724   0.01116   0.76541   0.00000  Uiso   1.00
C2221  C     0.71554   0.00712   0.77277   0.00000  Uiso   1.00
N2222  N     0.84517   0.15487   0.65516   0.00000  Uiso   1.00
H2223  H     0.27215   0.70776   0.52796   0.00000  Uiso   1.00
H2224  H     0.28483   0.69658   0.54720   0.00000  Uiso   1.00
H2225  H     0.29524   0.73695   0.56359   0.00000  Uiso   1.00
H2226  H     0.28261   0.74798   0.54447   0.00000  Uiso   1.00
H2227  H     0.29413   0.72408   0.58332   0.00000  Uiso   1.00
H2228  H     0.29849   0.72019   0.60809   0.00000  Uiso   1.00
H2229  H     0.30886   0.70709   0.62710   0.00000  Uiso   1.00
H2230  H     0.32505   0.67730   0.59770   0.00000  Uiso   1.00
H2231  H     0.31414   0.69017   0.57875   0.00000  Uiso   1.00
H2232  H     0.33001   0.70127   0.63761   0.00000  Uiso   1.00
H2233  H     0.33883   0.68817   0.65737   0.00000  Uiso   1.00
H2234  H     0.32949   0.64981   0.63625   0.00000  Uiso   1.00
H2235  H     0.31982   0.66286   0.61678   0.00000  Uiso   1.00
H2236  H     0.76012   0.21036   0.53838   0.00000  Uiso   1.00
H2237  H     0.77306   0.19857   0.55698   0.00000  Uiso   1.00
H2238  H     0.80633   0.22830   0.55234   0.00000  Uiso   1.00
H2239  H     0.79338   0.23993   0.53399   0.00000  Uiso   1.00
H2240  H     0.81405   0.21856   0.57105   0.00000  Uiso   1.00
H2241  H     0.83153   0.21466   0.58912   0.00000  Uiso   1.00
H2242  H     0.84096   0.20131   0.60856   0.00000  Uiso   1.00
H2243  H     0.80792   0.17135   0.60395   0.00000  Uiso   1.00
H2244  H     0.79867   0.18454   0.58440   0.00000  Uiso   1.00
H2245  H     0.83493   0.19569   0.63232   0.00000  Uiso   1.00
H2246  H     0.84344   0.18274   0.65243   0.00000  Uiso   1.00
H2247  H     0.83610   0.14422   0.63085   0.00000  Uiso   1.00
H2248  H     0.82761   0.15713   0.61065   0.00000  Uiso   1.00
H2249  H     0.26305   0.20713   0.03375   0.00000  Uiso   1.00
H2250  H     0.27599   0.19527   0.05232   0.00000  Uiso   1.00
H2251  H     0.30189   0.23156   0.05712   0.00000  Uiso   1.00
H2252  H     0.28910   0.24315   0.03861   0.00000  Uiso   1.00
H2253  H     0.31423   0.21756   0.06980   0.00000  Uiso   1.00
H2254  H     0.33170   0.21377   0.08793   0.00000  Uiso   1.00
H2255  H     0.34112   0.20054   0.10748   0.00000  Uiso   1.00
H2256  H     0.30719   0.17144   0.10409   0.00000  Uiso   1.00
H2257  H     0.29792   0.18450   0.08445   0.00000  Uiso   1.00
H2258  H     0.33518   0.19553   0.13155   0.00000  Uiso   1.00
H2259  H     0.34367   0.18270   0.15175   0.00000  Uiso   1.00
H2260  H     0.33531   0.14403   0.13081   0.00000  Uiso   1.00
H2261  H     0.32679   0.15682   0.11054   0.00000  Uiso   1.00
H2262  H     0.75971   0.71160   0.03855   0.00000  Uiso   1.00
H2263  H     0.77252   0.69965   0.05716   0.00000  Uiso   1.00
H2264  H     0.80647   0.72850   0.05197   0.00000  Uiso   1.00
H2265  H     0.79364   0.74031   0.03366   0.00000  Uiso   1.00
H2266  H     0.81364   0.71927   0.07118   0.00000  Uiso   1.00
H2267  H     0.83113   0.71530   0.08921   0.00000  Uiso   1.00
H2268  H     0.84058   0.70189   0.10859   0.00000  Uiso   1.00
H2269  H     0.80759   0.67190   0.10388   0.00000  Uiso   1.00
H2270  H     0.79832   0.68516   0.08437   0.00000  Uiso   1.00
H2271  H     0.83473   0.69610   0.13232   0.00000  Uiso   1.00
H2272  H     0.84340   0.68303   0.15228   0.00000  Uiso   1.00
H2273  H     0.83582   0.64465   0.13056   0.00000  Uiso   1.00
H2274  H     0.82722   0.65767   0.11048   0.00000  Uiso   1.00
H2275  H     0.26617   0.45063   0.25312   0.00000  Uiso   1.00
H2276  H     0.24833   0.45058   0.23284   0.00000  Uiso   1.00
H2277  H     0.20852   0.51350   0.21980   0.00000  Uiso   1.00
H2278  H     0.27317   0.48645   0.29456   0.00000  Uiso   1.00
H2279  H     0.74919   0.04944   0.76747   0.00000  Uiso   1.00
H2280  H     0.76751   0.04943   0.74769   0.00000  Uiso   1.00
H2281  H     0.77629   0.98650   0.70682   0.00000  Uiso   1.00
H2282  H     0.70915   0.01350   0.77946   0.00000  Uiso   1.00
C2283  C     0.27643   0.27136   0.46505   0.00000  Uiso   1.00
C2284  C     0.27722   0.28587   0.46428   0.00000  Uiso   1.00
C2285  C     0.28441   0.29220   0.45337   0.00000  Uiso   1.00
C2286  C     0.29062   0.28415   0.44298   0.00000  Uiso   1.00
C2287  C     0.29014   0.26957   0.44400   0.00000  Uiso   1.00
C2288  C     0.28309   0.26324   0.45498   0.00000  Uiso   1.00
N2289  N     0.29732   0.29107   0.43159   0.00000  Uiso   1.00
C2290  C     0.29868   0.28589   0.41920   0.00000  Uiso   1.00
C2291  C     0.30547   0.29383   0.40800   0.00000  Uiso   1.00
C2292  C     0.30429   0.28915   0.39427   0.00000  Uiso   1.00
C2293  C     0.31033   0.29661   0.38340   0.00000  Uiso   1.00
C2294  C     0.31785   0.30886   0.38605   0.00000  Uiso   1.00
C2295  C     0.31915   0.31344   0.39986   0.00000  Uiso   1.00
C2296  C     0.31298   0.30604   0.41073   0.00000  Uiso   1.00
C2297  C     0.32409   0.31686   0.37439   0.00000  Uiso   1.00
C2298  C     0.32968   0.30996   0.36280   0.00000  Uiso   1.00
C2299  C     0.33491   0.31745   0.35155   0.00000  Uiso   1.00
C2300  C     0.33487   0.33203   0.35168   0.00000  Uiso   1.00
C2301  C     0.32960   0.33896   0.36338   0.00000  Uiso   1.00
C2302  C     0.32421   0.33147   0.37458   0.00000  Uiso   1.00
C2303  C     0.77581   0.77398   0.46508   0.00000  Uiso   1.00
C2304  C     0.77022   0.78573   0.45857   0.00000  Uiso   1.00
C2305  C     0.77756   0.79242   0.44800   0.00000  Uiso   1.00
C2306  C     0.79055   0.78748   0.44371   0.00000  Uiso   1.00
C2307  C     0.79626   0.77577   0.45041   0.00000  Uiso   1.00
C2308  C     0.78890   0.76909   0.46100   0.00000  Uiso   1.00
N2309  N     0.79744   0.79468   0.43259   0.00000  Uiso   1.00
C2310  C     0.80874   0.79094   0.42623   0.00000  Uiso   1.00
C2311  C     0.81439   0.79935   0.41472   0.00000  Uiso   1.00
C2312  C     0.82634   0.79482   0.40774   0.00000  Uiso   1.00
C2313  C     0.83168   0.80241   0.39659   0.00000  Uiso   1.00
C2314  C     0.82517   0.81471   0.39219   0.00000  Uiso   1.00
C2315  C     0.81327   0.81932   0.39930   0.00000  Uiso   1.00
C2316  C     0.80793   0.81171   0.41044   0.00000  Uiso   1.00
C2317  C     0.83061   0.82258   0.38010   0.00000  Uiso   1.00
C2318  C     0.83528   0.81553   0.36820   0.00000  Uiso   1.00
C2319  C     0.84012   0.82292   0.35670   0.00000  Uiso   1.00
C2320  C     0.84042   0.83750   0.35685   0.00000  Uiso   1.00
C2321  C     0.83585   0.84455   0.36876   0.00000  Uiso   1.00
C2322  C     0.83097   0.83717   0.38027   0.00000  Uiso   1.00
C2323  C     0.27521   0.77404   0.96517   0.00000  Uiso   1.00
C2324  C     0.27160   0.78758   0.96122   0.00000  Uiso   1.00
C2325  C     0.27896   0.79431   0.95069   0.00000  Uiso   1.00
C2326  C     0.29005   0.78771   0.94399   0.00000  Uiso   1.00
C2327  C     0.29365   0.77408   0.94797   0.00000  Uiso   1.00
C2328  C     0.28629   0.76735   0.95851   0.00000  Uiso   1.00
N2329  N     0.29694   0.79502   0.93294   0.00000  Uiso   1.00
C2330  C     0.30848   0.79150   0.92689   0.00000  Uiso   1.00
C2331  C     0.31410   0.79982   0.91530   0.00000  Uiso   1.00
C2332  C     0.32631   0.79549   0.90864   0.00000  Uiso   1.00
C2333  C     0.33164   0.80301   0.89743   0.00000  Uiso   1.00
C2334  C     0.32487   0.81503   0.89267   0.00000  Uiso   1.00
C2335  C     0.31272   0.81943   0.89945   0.00000  Uiso   1.00
C2336  C     0.30737   0.81190   0.91064   0.00000  Uiso   1.00
C2337  C     0.33032   0.82282   0.88054   0.00000  Uiso   1.00
C2338  C     0.33530   0.81570   0.86882   0.00000  Uiso   1.00
C2339  C     0.34014   0.82302   0.85726   0.00000  Uiso   1.00
C2340  C     0.34014   0.83761   0.85720   0.00000  Uiso   1.00
C2341  C     0.33528   0.84473   0.86896   0.00000  Uiso   1.00
C2342  C     0.33040   0.83742   0.88051   0.00000  Uiso   1.00
C2343  C     0.77574   0.27315   0.96515   0.00000  Uiso   1.00
C2344  C     0.76992   0.28471   0.95851   0.00000  Uiso   1.00
C2345  C     0.77719   0.29149   0.94794   0.00000  Uiso   1.00
C2346  C     0.79032   0.28681   0.94378   0.00000  Uiso   1.00
C2347  C     0.79626   0.27531   0.95064   0.00000  Uiso   1.00
C2348  C     0.78898   0.26855   0.96122   0.00000  Uiso   1.00
N2349  N     0.79713   0.29405   0.93263   0.00000  Uiso   1.00
C2350  C     0.80838   0.29028   0.92619   0.00000  Uiso   1.00
C2351  C     0.81401   0.29871   0.91469   0.00000  Uiso   1.00
C2352  C     0.82595   0.29419   0.90768   0.00000  Uiso   1.00
C2353  C     0.83130   0.30182   0.89656   0.00000  Uiso   1.00
C2354  C     0.82481   0.31415   0.89222   0.00000  Uiso   1.00
C2355  C     0.81292   0.31874   0.89933   0.00000  Uiso   1.00
C2356  C     0.80757   0.31110   0.91045   0.00000  Uiso   1.00
C2357  C     0.83029   0.32208   0.88019   0.00000  Uiso   1.00
C2358  C     0.83507   0.31512   0.86828   0.00000  Uiso   1.00
C2359  C     0.84000   0.32257   0.85686   0.00000  Uiso   1.00
C2360  C     0.84029   0.33714   0.85709   0.00000  Uiso   1.00
C2361  C     0.83559   0.34412   0.86900   0.00000  Uiso   1.00
C2362  C     0.83064   0.33668   0.88043   0.00000  Uiso   1.00
C2363  C     0.26170   0.54014   0.75148   0.00000  Uiso   1.00
C2364  C     0.26149   0.52684   0.74597   0.00000  Uiso   1.00
N2365  N     0.25433   0.51834   0.75454   0.00000  Uiso   1.00
C2366  C     0.24686   0.52684   0.76282   0.00000  Uiso   1.00
C2367  C     0.25232   0.54016   0.76220   0.00000  Uiso   1.00
C2368  C     0.23330   0.52390   0.76785   0.00000  Uiso   1.00
C2369  C     0.22620   0.51117   0.76563   0.00000  Uiso   1.00
C2370  C     0.21471   0.49288   0.77333   0.00000  Uiso   1.00
C2371  C     0.26460   0.52389   0.73185   0.00000  Uiso   1.00
C2372  C     0.26148   0.51115   0.72514   0.00000  Uiso   1.00
C2373  C     0.26739   0.50713   0.71263   0.00000  Uiso   1.00
C2374  C     0.75339   0.95983   0.23730   0.00000  Uiso   1.00
C2375  C     0.74798   0.97317   0.23680   0.00000  Uiso   1.00
N2376  N     0.75572   0.98167   0.24484   0.00000  Uiso   1.00
C2377  C     0.76314   0.97317   0.25319   0.00000  Uiso   1.00
C2378  C     0.76306   0.95983   0.24775   0.00000  Uiso   1.00
C2379  C     0.76673   0.97613   0.26719   0.00000  Uiso   1.00
C2380  C     0.76370   0.98884   0.27403   0.00000  Uiso   1.00
C2381  C     0.77011   0.00712   0.28629   0.00000  Uiso   1.00
C2382  C     0.73429   0.97612   0.23214   0.00000  Uiso   1.00
C2383  C     0.72724   0.98884   0.23459   0.00000  Uiso   1.00
C2384  C     0.71554   0.99288   0.22723   0.00000  Uiso   1.00
N2385  N     0.84517   0.84513   0.34484   0.00000  Uiso   1.00
H2386  H     0.27215   0.29224   0.47204   0.00000  Uiso   1.00
H2387  H     0.28483   0.30342   0.45280   0.00000  Uiso   1.00
H2388  H     0.29524   0.26305   0.43641   0.00000  Uiso   1.00
H2389  H     0.28261   0.25202   0.45553   0.00000  Uiso   1.00
H2390  H     0.29413   0.27592   0.41668   0.00000  Uiso   1.00
H2391  H     0.29849   0.27981   0.39191   0.00000  Uiso   1.00
H2392  H     0.30886   0.29291   0.37290   0.00000  Uiso   1.00
H2393  H     0.32505   0.32270   0.40230   0.00000  Uiso   1.00
H2394  H     0.31414   0.30983   0.42125   0.00000  Uiso   1.00
H2395  H     0.33001   0.29873   0.36239   0.00000  Uiso   1.00
H2396  H     0.33883   0.31183   0.34263   0.00000  Uiso   1.00
H2397  H     0.32949   0.35019   0.36375   0.00000  Uiso   1.00
H2398  H     0.31982   0.33714   0.38322   0.00000  Uiso   1.00
H2399  H     0.76012   0.78964   0.46162   0.00000  Uiso   1.00
H2400  H     0.77306   0.80143   0.44302   0.00000  Uiso   1.00
H2401  H     0.80633   0.77170   0.44766   0.00000  Uiso   1.00
H2402  H     0.79338   0.76007   0.46601   0.00000  Uiso   1.00
H2403  H     0.81405   0.78144   0.42895   0.00000  Uiso   1.00
H2404  H     0.83153   0.78534   0.41088   0.00000  Uiso   1.00
H2405  H     0.84096   0.79869   0.39144   0.00000  Uiso   1.00
H2406  H     0.80792   0.82865   0.39605   0.00000  Uiso   1.00
H2407  H     0.79867   0.81546   0.41560   0.00000  Uiso   1.00
H2408  H     0.83493   0.80431   0.36768   0.00000  Uiso   1.00
H2409  H     0.84344   0.81726   0.34757   0.00000  Uiso   1.00
H2410  H     0.83610   0.85578   0.36915   0.00000  Uiso   1.00
H2411  H     0.82761   0.84287   0.38935   0.00000  Uiso   1.00
H2412  H     0.26305   0.79287   0.96625   0.00000  Uiso   1.00
H2413  H     0.27599   0.80473   0.94768   0.00000  Uiso   1.00
H2414  H     0.30189   0.76844   0.94288   0.00000  Uiso   1.00
H2415  H     0.28910   0.75685   0.96139   0.00000  Uiso   1.00
H2416  H     0.31423   0.78244   0.93020   0.00000  Uiso   1.00
H2417  H     0.33170   0.78623   0.91207   0.00000  Uiso   1.00
H2418  H     0.34112   0.79946   0.89252   0.00000  Uiso   1.00
H2419  H     0.30719   0.82856   0.89591   0.00000  Uiso   1.00
H2420  H     0.29792   0.81550   0.91555   0.00000  Uiso   1.00
H2421  H     0.33518   0.80447   0.86845   0.00000  Uiso   1.00
H2422  H     0.34367   0.81730   0.84825   0.00000  Uiso   1.00
H2423  H     0.33531   0.85597   0.86919   0.00000  Uiso   1.00
H2424  H     0.32679   0.84318   0.88946   0.00000  Uiso   1.00
H2425  H     0.75971   0.28840   0.96145   0.00000  Uiso   1.00
H2426  H     0.77252   0.30035   0.94284   0.00000  Uiso   1.00
H2427  H     0.80647   0.27150   0.94803   0.00000  Uiso   1.00
H2428  H     0.79364   0.25969   0.96634   0.00000  Uiso   1.00
H2429  H     0.81364   0.28073   0.92882   0.00000  Uiso   1.00
H2430  H     0.83113   0.28470   0.91079   0.00000  Uiso   1.00
H2431  H     0.84058   0.29811   0.89141   0.00000  Uiso   1.00
H2432  H     0.80759   0.32810   0.89612   0.00000  Uiso   1.00
H2433  H     0.79832   0.31484   0.91563   0.00000  Uiso   1.00
H2434  H     0.83473   0.30390   0.86768   0.00000  Uiso   1.00
H2435  H     0.84340   0.31697   0.84772   0.00000  Uiso   1.00
H2436  H     0.83582   0.35535   0.86944   0.00000  Uiso   1.00
H2437  H     0.82722   0.34233   0.88952   0.00000  Uiso   1.00
H2438  H     0.26617   0.54937   0.74688   0.00000  Uiso   1.00
H2439  H     0.24833   0.54942   0.76716   0.00000  Uiso   1.00
H2440  H     0.20852   0.48650   0.78020   0.00000  Uiso   1.00
H2441  H     0.27317   0.51355   0.70544   0.00000  Uiso   1.00
H2442  H     0.74919   0.95056   0.23253   0.00000  Uiso   1.00
H2443  H     0.76751   0.95057   0.25231   0.00000  Uiso   1.00
H2444  H     0.77629   0.01350   0.29318   0.00000  Uiso   1.00
H2445  H     0.70915   0.98650   0.22054   0.00000  Uiso   1.00
C2446  C     0.72357   0.72864   0.46505   0.00000  Uiso   1.00
C2447  C     0.72278   0.71413   0.46428   0.00000  Uiso   1.00
C2448  C     0.71559   0.70780   0.45337   0.00000  Uiso   1.00
C2449  C     0.70938   0.71585   0.44298   0.00000  Uiso   1.00
C2450  C     0.70986   0.73043   0.44400   0.00000  Uiso   1.00
C2451  C     0.71691   0.73676   0.45498   0.00000  Uiso   1.00
N2452  N     0.70268   0.70893   0.43159   0.00000  Uiso   1.00
C2453  C     0.70132   0.71411   0.41920   0.00000  Uiso   1.00
C2454  C     0.69453   0.70617   0.40800   0.00000  Uiso   1.00
C2455  C     0.69571   0.71085   0.39427   0.00000  Uiso   1.00
C2456  C     0.68967   0.70339   0.38340   0.00000  Uiso   1.00
C2457  C     0.68215   0.69114   0.38605   0.00000  Uiso   1.00
C2458  C     0.68085   0.68656   0.39986   0.00000  Uiso   1.00
C2459  C     0.68702   0.69396   0.41073   0.00000  Uiso   1.00
C2460  C     0.67591   0.68314   0.37439   0.00000  Uiso   1.00
C2461  C     0.67032   0.69004   0.36280   0.00000  Uiso   1.00
C2462  C     0.66509   0.68255   0.35155   0.00000  Uiso   1.00
C2463  C     0.66513   0.66797   0.35168   0.00000  Uiso   1.00
C2464  C     0.67040   0.66104   0.36338   0.00000  Uiso   1.00
C2465  C     0.67579   0.66853   0.37458   0.00000  Uiso   1.00
C2466  C     0.22419   0.22602   0.46508   0.00000  Uiso   1.00
C2467  C     0.22978   0.21427   0.45857   0.00000  Uiso   1.00
C2468  C     0.22244   0.20758   0.44800   0.00000  Uiso   1.00
C2469  C     0.20945   0.21252   0.44371   0.00000  Uiso   1.00
C2470  C     0.20374   0.22423   0.45041   0.00000  Uiso   1.00
C2471  C     0.21110   0.23091   0.46100   0.00000  Uiso   1.00
N2472  N     0.20256   0.20532   0.43259   0.00000  Uiso   1.00
C2473  C     0.19126   0.20906   0.42623   0.00000  Uiso   1.00
C2474  C     0.18561   0.20065   0.41472   0.00000  Uiso   1.00
C2475  C     0.17366   0.20518   0.40774   0.00000  Uiso   1.00
C2476  C     0.16832   0.19759   0.39659   0.00000  Uiso   1.00
C2477  C     0.17483   0.18529   0.39219   0.00000  Uiso   1.00
C2478  C     0.18673   0.18068   0.39930   0.00000  Uiso   1.00
C2479  C     0.19207   0.18829   0.41044   0.00000  Uiso   1.00
C2480  C     0.16939   0.17742   0.38010   0.00000  Uiso   1.00
C2481  C     0.16472   0.18447   0.36820   0.00000  Uiso   1.00
C2482  C     0.15988   0.17708   0.35670   0.00000  Uiso   1.00
C2483  C     0.15958   0.16250   0.35685   0.00000  Uiso   1.00
C2484  C     0.16415   0.15545   0.36876   0.00000  Uiso   1.00
C2485  C     0.16903   0.16283   0.38027   0.00000  Uiso   1.00
C2486  C     0.72479   0.22596   0.96517   0.00000  Uiso   1.00
C2487  C     0.72840   0.21242   0.96122   0.00000  Uiso   1.00
C2488  C     0.72104   0.20569   0.95069   0.00000  Uiso   1.00
C2489  C     0.70995   0.21229   0.94399   0.00000  Uiso   1.00
C2490  C     0.70635   0.22592   0.94797   0.00000  Uiso   1.00
C2491  C     0.71371   0.23265   0.95851   0.00000  Uiso   1.00
N2492  N     0.70306   0.20498   0.93294   0.00000  Uiso   1.00
C2493  C     0.69152   0.20850   0.92689   0.00000  Uiso   1.00
C2494  C     0.68590   0.20018   0.91530   0.00000  Uiso   1.00
C2495  C     0.67369   0.20451   0.90864   0.00000  Uiso   1.00
C2496  C     0.66836   0.19699   0.89743   0.00000  Uiso   1.00
C2497  C     0.67513   0.18497   0.89267   0.00000  Uiso   1.00
C2498  C     0.68728   0.18057   0.89945   0.00000  Uiso   1.00
C2499  C     0.69263   0.18810   0.91064   0.00000  Uiso   1.00
C2500  C     0.66968   0.17718   0.88054   0.00000  Uiso   1.00
C2501  C     0.66470   0.18430   0.86882   0.00000  Uiso   1.00
C2502  C     0.65986   0.17698   0.85726   0.00000  Uiso   1.00
C2503  C     0.65986   0.16239   0.85720   0.00000  Uiso   1.00
C2504  C     0.66472   0.15527   0.86896   0.00000  Uiso   1.00
C2505  C     0.66960   0.16258   0.88051   0.00000  Uiso   1.00
C2506  C     0.22426   0.72685   0.96515   0.00000  Uiso   1.00
C2507  C     0.23008   0.71529   0.95851   0.00000  Uiso   1.00
C2508  C     0.22281   0.70851   0.94794   0.00000  Uiso   1.00
C2509  C     0.20968   0.71319   0.94378   0.00000  Uiso   1.00
C2510  C     0.20374   0.72469   0.95064   0.00000  Uiso   1.00
C2511  C     0.21102   0.73145   0.96122   0.00000  Uiso   1.00
N2512  N     0.20287   0.70595   0.93263   0.00000  Uiso   1.00
C2513  C     0.19162   0.70972   0.92619   0.00000  Uiso   1.00
C2514  C     0.18599   0.70129   0.91469   0.00000  Uiso   1.00
C2515  C     0.17405   0.70581   0.90768   0.00000  Uiso   1.00
C2516  C     0.16870   0.69818   0.89656   0.00000  Uiso   1.00
C2517  C     0.17519   0.68585   0.89222   0.00000  Uiso   1.00
C2518  C     0.18708   0.68126   0.89933   0.00000  Uiso   1.00
C2519  C     0.19243   0.68890   0.91045   0.00000  Uiso   1.00
C2520  C     0.16971   0.67792   0.88019   0.00000  Uiso   1.00
C2521  C     0.16493   0.68488   0.86828   0.00000  Uiso   1.00
C2522  C     0.16000   0.67743   0.85686   0.00000  Uiso   1.00
C2523  C     0.15971   0.66286   0.85709   0.00000  Uiso   1.00
C2524  C     0.16441   0.65588   0.86900   0.00000  Uiso   1.00
C2525  C     0.16936   0.66332   0.88043   0.00000  Uiso   1.00
C2526  C     0.73830   0.45986   0.75148   0.00000  Uiso   1.00
C2527  C     0.73851   0.47316   0.74597   0.00000  Uiso   1.00
N2528  N     0.74567   0.48166   0.75454   0.00000  Uiso   1.00
C2529  C     0.75314   0.47316   0.76282   0.00000  Uiso   1.00
C2530  C     0.74768   0.45984   0.76220   0.00000  Uiso   1.00
C2531  C     0.76670   0.47610   0.76785   0.00000  Uiso   1.00
C2532  C     0.77380   0.48883   0.76563   0.00000  Uiso   1.00
C2533  C     0.78529   0.50712   0.77333   0.00000  Uiso   1.00
C2534  C     0.73540   0.47611   0.73185   0.00000  Uiso   1.00
C2535  C     0.73852   0.48885   0.72514   0.00000  Uiso   1.00
C2536  C     0.73261   0.49287   0.71263   0.00000  Uiso   1.00
C2537  C     0.24661   0.04017   0.23730   0.00000  Uiso   1.00
C2538  C     0.25202   0.02683   0.23680   0.00000  Uiso   1.00
N2539  N     0.24428   0.01833   0.24484   0.00000  Uiso   1.00
C2540  C     0.23686   0.02683   0.25319   0.00000  Uiso   1.00
C2541  C     0.23694   0.04017   0.24775   0.00000  Uiso   1.00
C2542  C     0.23327   0.02387   0.26719   0.00000  Uiso   1.00
C2543  C     0.23630   0.01116   0.27403   0.00000  Uiso   1.00
C2544  C     0.22989   0.99288   0.28629   0.00000  Uiso   1.00
C2545  C     0.26571   0.02388   0.23214   0.00000  Uiso   1.00
C2546  C     0.27276   0.01116   0.23459   0.00000  Uiso   1.00
C2547  C     0.28446   0.00712   0.22723   0.00000  Uiso   1.00
N2548  N     0.15483   0.15487   0.34484   0.00000  Uiso   1.00
H2549  H     0.72785   0.70776   0.47204   0.00000  Uiso   1.00
H2550  H     0.71517   0.69658   0.45280   0.00000  Uiso   1.00
H2551  H     0.70476   0.73695   0.43641   0.00000  Uiso   1.00
H2552  H     0.71739   0.74798   0.45553   0.00000  Uiso   1.00
H2553  H     0.70587   0.72408   0.41668   0.00000  Uiso   1.00
H2554  H     0.70151   0.72019   0.39191   0.00000  Uiso   1.00
H2555  H     0.69114   0.70709   0.37290   0.00000  Uiso   1.00
H2556  H     0.67495   0.67730   0.40230   0.00000  Uiso   1.00
H2557  H     0.68586   0.69017   0.42125   0.00000  Uiso   1.00
H2558  H     0.66999   0.70127   0.36239   0.00000  Uiso   1.00
H2559  H     0.66117   0.68817   0.34263   0.00000  Uiso   1.00
H2560  H     0.67051   0.64981   0.36375   0.00000  Uiso   1.00
H2561  H     0.68018   0.66286   0.38322   0.00000  Uiso   1.00
H2562  H     0.23988   0.21036   0.46162   0.00000  Uiso   1.00
H2563  H     0.22694   0.19857   0.44302   0.00000  Uiso   1.00
H2564  H     0.19367   0.22830   0.44766   0.00000  Uiso   1.00
H2565  H     0.20662   0.23993   0.46601   0.00000  Uiso   1.00
H2566  H     0.18595   0.21856   0.42895   0.00000  Uiso   1.00
H2567  H     0.16847   0.21466   0.41088   0.00000  Uiso   1.00
H2568  H     0.15904   0.20131   0.39144   0.00000  Uiso   1.00
H2569  H     0.19208   0.17135   0.39605   0.00000  Uiso   1.00
H2570  H     0.20133   0.18454   0.41560   0.00000  Uiso   1.00
H2571  H     0.16507   0.19569   0.36768   0.00000  Uiso   1.00
H2572  H     0.15656   0.18274   0.34757   0.00000  Uiso   1.00
H2573  H     0.16390   0.14422   0.36915   0.00000  Uiso   1.00
H2574  H     0.17239   0.15713   0.38935   0.00000  Uiso   1.00
H2575  H     0.73695   0.20713   0.96625   0.00000  Uiso   1.00
H2576  H     0.72401   0.19527   0.94768   0.00000  Uiso   1.00
H2577  H     0.69811   0.23156   0.94288   0.00000  Uiso   1.00
H2578  H     0.71090   0.24315   0.96139   0.00000  Uiso   1.00
H2579  H     0.68577   0.21756   0.93020   0.00000  Uiso   1.00
H2580  H     0.66830   0.21377   0.91207   0.00000  Uiso   1.00
H2581  H     0.65888   0.20054   0.89252   0.00000  Uiso   1.00
H2582  H     0.69281   0.17144   0.89591   0.00000  Uiso   1.00
H2583  H     0.70208   0.18450   0.91555   0.00000  Uiso   1.00
H2584  H     0.66482   0.19553   0.86845   0.00000  Uiso   1.00
H2585  H     0.65633   0.18270   0.84825   0.00000  Uiso   1.00
H2586  H     0.66469   0.14403   0.86919   0.00000  Uiso   1.00
H2587  H     0.67321   0.15682   0.88946   0.00000  Uiso   1.00
H2588  H     0.24029   0.71160   0.96145   0.00000  Uiso   1.00
H2589  H     0.22748   0.69965   0.94284   0.00000  Uiso   1.00
H2590  H     0.19353   0.72850   0.94803   0.00000  Uiso   1.00
H2591  H     0.20636   0.74031   0.96634   0.00000  Uiso   1.00
H2592  H     0.18636   0.71927   0.92882   0.00000  Uiso   1.00
H2593  H     0.16887   0.71530   0.91079   0.00000  Uiso   1.00
H2594  H     0.15942   0.70189   0.89141   0.00000  Uiso   1.00
H2595  H     0.19241   0.67190   0.89612   0.00000  Uiso   1.00
H2596  H     0.20168   0.68516   0.91563   0.00000  Uiso   1.00
H2597  H     0.16527   0.69610   0.86768   0.00000  Uiso   1.00
H2598  H     0.15660   0.68303   0.84772   0.00000  Uiso   1.00
H2599  H     0.16418   0.64465   0.86944   0.00000  Uiso   1.00
H2600  H     0.17278   0.65767   0.88952   0.00000  Uiso   1.00
H2601  H     0.73383   0.45063   0.74688   0.00000  Uiso   1.00
H2602  H     0.75167   0.45058   0.76716   0.00000  Uiso   1.00
H2603  H     0.79148   0.51350   0.78020   0.00000  Uiso   1.00
H2604  H     0.72683   0.48645   0.70544   0.00000  Uiso   1.00
H2605  H     0.25081   0.04944   0.23253   0.00000  Uiso   1.00
H2606  H     0.23249   0.04943   0.25231   0.00000  Uiso   1.00
H2607  H     0.22371   0.98650   0.29318   0.00000  Uiso   1.00
H2608  H     0.29085   0.01350   0.22054   0.00000  Uiso   1.00
C2609  C     0.53495   0.72357   0.27136   0.00000  Uiso   1.00
C2610  C     0.53572   0.72278   0.28587   0.00000  Uiso   1.00
C2611  C     0.54663   0.71559   0.29220   0.00000  Uiso   1.00
C2612  C     0.55702   0.70938   0.28415   0.00000  Uiso   1.00
C2613  C     0.55600   0.70986   0.26957   0.00000  Uiso   1.00
C2614  C     0.54502   0.71691   0.26324   0.00000  Uiso   1.00
N2615  N     0.56841   0.70268   0.29107   0.00000  Uiso   1.00
C2616  C     0.58080   0.70132   0.28589   0.00000  Uiso   1.00
C2617  C     0.59200   0.69453   0.29383   0.00000  Uiso   1.00
C2618  C     0.60573   0.69571   0.28915   0.00000  Uiso   1.00
C2619  C     0.61660   0.68967   0.29661   0.00000  Uiso   1.00
C2620  C     0.61395   0.68215   0.30886   0.00000  Uiso   1.00
C2621  C     0.60014   0.68085   0.31344   0.00000  Uiso   1.00
C2622  C     0.58927   0.68702   0.30604   0.00000  Uiso   1.00
C2623  C     0.62561   0.67591   0.31686   0.00000  Uiso   1.00
C2624  C     0.63720   0.67032   0.30996   0.00000  Uiso   1.00
C2625  C     0.64845   0.66509   0.31745   0.00000  Uiso   1.00
C2626  C     0.64832   0.66513   0.33203   0.00000  Uiso   1.00
C2627  C     0.63662   0.67040   0.33896   0.00000  Uiso   1.00
C2628  C     0.62542   0.67579   0.33147   0.00000  Uiso   1.00
C2629  C     0.53492   0.22419   0.77398   0.00000  Uiso   1.00
C2630  C     0.54143   0.22978   0.78573   0.00000  Uiso   1.00
C2631  C     0.55200   0.22244   0.79242   0.00000  Uiso   1.00
C2632  C     0.55629   0.20945   0.78748   0.00000  Uiso   1.00
C2633  C     0.54959   0.20374   0.77577   0.00000  Uiso   1.00
C2634  C     0.53900   0.21110   0.76909   0.00000  Uiso   1.00
N2635  N     0.56741   0.20256   0.79468   0.00000  Uiso   1.00
C2636  C     0.57377   0.19126   0.79094   0.00000  Uiso   1.00
C2637  C     0.58528   0.18561   0.79935   0.00000  Uiso   1.00
C2638  C     0.59226   0.17366   0.79482   0.00000  Uiso   1.00
C2639  C     0.60341   0.16832   0.80241   0.00000  Uiso   1.00
C2640  C     0.60781   0.17483   0.81471   0.00000  Uiso   1.00
C2641  C     0.60070   0.18673   0.81932   0.00000  Uiso   1.00
C2642  C     0.58956   0.19207   0.81171   0.00000  Uiso   1.00
C2643  C     0.61990   0.16939   0.82258   0.00000  Uiso   1.00
C2644  C     0.63180   0.16472   0.81553   0.00000  Uiso   1.00
C2645  C     0.64330   0.15988   0.82292   0.00000  Uiso   1.00
C2646  C     0.64315   0.15958   0.83750   0.00000  Uiso   1.00
C2647  C     0.63124   0.16415   0.84455   0.00000  Uiso   1.00
C2648  C     0.61973   0.16903   0.83717   0.00000  Uiso   1.00
C2649  C     0.03483   0.72479   0.77404   0.00000  Uiso   1.00
C2650  C     0.03878   0.72840   0.78758   0.00000  Uiso   1.00
C2651  C     0.04931   0.72104   0.79431   0.00000  Uiso   1.00
C2652  C     0.05601   0.70995   0.78771   0.00000  Uiso   1.00
C2653  C     0.05203   0.70635   0.77408   0.00000  Uiso   1.00
C2654  C     0.04149   0.71371   0.76735   0.00000  Uiso   1.00
N2655  N     0.06706   0.70306   0.79502   0.00000  Uiso   1.00
C2656  C     0.07311   0.69152   0.79150   0.00000  Uiso   1.00
C2657  C     0.08470   0.68590   0.79982   0.00000  Uiso   1.00
C2658  C     0.09136   0.67369   0.79549   0.00000  Uiso   1.00
C2659  C     0.10257   0.66836   0.80301   0.00000  Uiso   1.00
C2660  C     0.10733   0.67513   0.81503   0.00000  Uiso   1.00
C2661  C     0.10055   0.68728   0.81943   0.00000  Uiso   1.00
C2662  C     0.08936   0.69263   0.81190   0.00000  Uiso   1.00
C2663  C     0.11946   0.66968   0.82282   0.00000  Uiso   1.00
C2664  C     0.13118   0.66470   0.81570   0.00000  Uiso   1.00
C2665  C     0.14274   0.65986   0.82302   0.00000  Uiso   1.00
C2666  C     0.14280   0.65986   0.83761   0.00000  Uiso   1.00
C2667  C     0.13104   0.66472   0.84473   0.00000  Uiso   1.00
C2668  C     0.11949   0.66960   0.83742   0.00000  Uiso   1.00
C2669  C     0.03485   0.22426   0.27315   0.00000  Uiso   1.00
C2670  C     0.04149   0.23008   0.28471   0.00000  Uiso   1.00
C2671  C     0.05206   0.22281   0.29149   0.00000  Uiso   1.00
C2672  C     0.05622   0.20968   0.28681   0.00000  Uiso   1.00
C2673  C     0.04936   0.20374   0.27531   0.00000  Uiso   1.00
C2674  C     0.03878   0.21102   0.26855   0.00000  Uiso   1.00
N2675  N     0.06737   0.20287   0.29405   0.00000  Uiso   1.00
C2676  C     0.07381   0.19162   0.29028   0.00000  Uiso   1.00
C2677  C     0.08531   0.18599   0.29871   0.00000  Uiso   1.00
C2678  C     0.09232   0.17405   0.29419   0.00000  Uiso   1.00
C2679  C     0.10344   0.16870   0.30182   0.00000  Uiso   1.00
C2680  C     0.10778   0.17519   0.31415   0.00000  Uiso   1.00
C2681  C     0.10067   0.18708   0.31874   0.00000  Uiso   1.00
C2682  C     0.08955   0.19243   0.31110   0.00000  Uiso   1.00
C2683  C     0.11981   0.16971   0.32208   0.00000  Uiso   1.00
C2684  C     0.13172   0.16493   0.31512   0.00000  Uiso   1.00
C2685  C     0.14314   0.16000   0.32257   0.00000  Uiso   1.00
C2686  C     0.14291   0.15971   0.33714   0.00000  Uiso   1.00
C2687  C     0.13100   0.16441   0.34412   0.00000  Uiso   1.00
C2688  C     0.11957   0.16936   0.33668   0.00000  Uiso   1.00
C2689  C     0.24852   0.73830   0.54014   0.00000  Uiso   1.00
C2690  C     0.25403   0.73851   0.52684   0.00000  Uiso   1.00
N2691  N     0.24546   0.74567   0.51834   0.00000  Uiso   1.00
C2692  C     0.23718   0.75314   0.52684   0.00000  Uiso   1.00
C2693  C     0.23780   0.74768   0.54016   0.00000  Uiso   1.00
C2694  C     0.23215   0.76670   0.52390   0.00000  Uiso   1.00
C2695  C     0.23437   0.77380   0.51117   0.00000  Uiso   1.00
C2696  C     0.22667   0.78529   0.49288   0.00000  Uiso   1.00
C2697  C     0.26815   0.73540   0.52389   0.00000  Uiso   1.00
C2698  C     0.27486   0.73852   0.51115   0.00000  Uiso   1.00
C2699  C     0.28737   0.73261   0.50713   0.00000  Uiso   1.00
C2700  C     0.76270   0.24661   0.95983   0.00000  Uiso   1.00
C2701  C     0.76320   0.25202   0.97317   0.00000  Uiso   1.00
N2702  N     0.75516   0.24428   0.98167   0.00000  Uiso   1.00
C2703  C     0.74681   0.23686   0.97317   0.00000  Uiso   1.00
C2704  C     0.75225   0.23694   0.95983   0.00000  Uiso   1.00
C2705  C     0.73281   0.23327   0.97613   0.00000  Uiso   1.00
C2706  C     0.72597   0.23630   0.98884   0.00000  Uiso   1.00
C2707  C     0.71371   0.22989   0.00712   0.00000  Uiso   1.00
C2708  C     0.76786   0.26571   0.97612   0.00000  Uiso   1.00
C2709  C     0.76541   0.27276   0.98884   0.00000  Uiso   1.00
C2710  C     0.77277   0.28446   0.99288   0.00000  Uiso   1.00
N2711  N     0.65516   0.15483   0.84513   0.00000  Uiso   1.00
H2712  H     0.52796   0.72785   0.29224   0.00000  Uiso   1.00
H2713  H     0.54720   0.71517   0.30342   0.00000  Uiso   1.00
H2714  H     0.56359   0.70476   0.26305   0.00000  Uiso   1.00
H2715  H     0.54447   0.71739   0.25202   0.00000  Uiso   1.00
H2716  H     0.58332   0.70587   0.27592   0.00000  Uiso   1.00
H2717  H     0.60809   0.70151   0.27981   0.00000  Uiso   1.00
H2718  H     0.62710   0.69114   0.29291   0.00000  Uiso   1.00
H2719  H     0.59770   0.67495   0.32270   0.00000  Uiso   1.00
H2720  H     0.57875   0.68586   0.30983   0.00000  Uiso   1.00
H2721  H     0.63761   0.66999   0.29873   0.00000  Uiso   1.00
H2722  H     0.65737   0.66117   0.31183   0.00000  Uiso   1.00
H2723  H     0.63625   0.67051   0.35019   0.00000  Uiso   1.00
H2724  H     0.61678   0.68018   0.33714   0.00000  Uiso   1.00
H2725  H     0.53838   0.23988   0.78964   0.00000  Uiso   1.00
H2726  H     0.55698   0.22694   0.80143   0.00000  Uiso   1.00
H2727  H     0.55234   0.19367   0.77170   0.00000  Uiso   1.00
H2728  H     0.53399   0.20662   0.76007   0.00000  Uiso   1.00
H2729  H     0.57105   0.18595   0.78144   0.00000  Uiso   1.00
H2730  H     0.58912   0.16847   0.78534   0.00000  Uiso   1.00
H2731  H     0.60856   0.15904   0.79869   0.00000  Uiso   1.00
H2732  H     0.60395   0.19208   0.82865   0.00000  Uiso   1.00
H2733  H     0.58440   0.20133   0.81546   0.00000  Uiso   1.00
H2734  H     0.63232   0.16507   0.80431   0.00000  Uiso   1.00
H2735  H     0.65243   0.15656   0.81726   0.00000  Uiso   1.00
H2736  H     0.63085   0.16390   0.85578   0.00000  Uiso   1.00
H2737  H     0.61065   0.17239   0.84287   0.00000  Uiso   1.00
H2738  H     0.03375   0.73695   0.79287   0.00000  Uiso   1.00
H2739  H     0.05232   0.72401   0.80473   0.00000  Uiso   1.00
H2740  H     0.05712   0.69811   0.76844   0.00000  Uiso   1.00
H2741  H     0.03861   0.71090   0.75685   0.00000  Uiso   1.00
H2742  H     0.06980   0.68577   0.78244   0.00000  Uiso   1.00
H2743  H     0.08793   0.66830   0.78623   0.00000  Uiso   1.00
H2744  H     0.10748   0.65888   0.79946   0.00000  Uiso   1.00
H2745  H     0.10409   0.69281   0.82856   0.00000  Uiso   1.00
H2746  H     0.08445   0.70208   0.81550   0.00000  Uiso   1.00
H2747  H     0.13155   0.66482   0.80447   0.00000  Uiso   1.00
H2748  H     0.15175   0.65633   0.81730   0.00000  Uiso   1.00
H2749  H     0.13081   0.66469   0.85597   0.00000  Uiso   1.00
H2750  H     0.11054   0.67321   0.84318   0.00000  Uiso   1.00
H2751  H     0.03855   0.24029   0.28840   0.00000  Uiso   1.00
H2752  H     0.05716   0.22748   0.30035   0.00000  Uiso   1.00
H2753  H     0.05197   0.19353   0.27150   0.00000  Uiso   1.00
H2754  H     0.03366   0.20636   0.25969   0.00000  Uiso   1.00
H2755  H     0.07118   0.18636   0.28073   0.00000  Uiso   1.00
H2756  H     0.08921   0.16887   0.28470   0.00000  Uiso   1.00
H2757  H     0.10859   0.15942   0.29811   0.00000  Uiso   1.00
H2758  H     0.10388   0.19241   0.32810   0.00000  Uiso   1.00
H2759  H     0.08437   0.20168   0.31484   0.00000  Uiso   1.00
H2760  H     0.13232   0.16527   0.30390   0.00000  Uiso   1.00
H2761  H     0.15228   0.15660   0.31697   0.00000  Uiso   1.00
H2762  H     0.13056   0.16418   0.35535   0.00000  Uiso   1.00
H2763  H     0.11048   0.17278   0.34233   0.00000  Uiso   1.00
H2764  H     0.25312   0.73383   0.54937   0.00000  Uiso   1.00
H2765  H     0.23284   0.75167   0.54942   0.00000  Uiso   1.00
H2766  H     0.21980   0.79148   0.48650   0.00000  Uiso   1.00
H2767  H     0.29456   0.72683   0.51355   0.00000  Uiso   1.00
H2768  H     0.76747   0.25081   0.95056   0.00000  Uiso   1.00
H2769  H     0.74769   0.23249   0.95057   0.00000  Uiso   1.00
H2770  H     0.70682   0.22371   0.01350   0.00000  Uiso   1.00
H2771  H     0.77946   0.29085   0.98650   0.00000  Uiso   1.00
C2772  C     0.53495   0.27643   0.72864   0.00000  Uiso   1.00
C2773  C     0.53572   0.27722   0.71413   0.00000  Uiso   1.00
C2774  C     0.54663   0.28441   0.70780   0.00000  Uiso   1.00
C2775  C     0.55702   0.29062   0.71585   0.00000  Uiso   1.00
C2776  C     0.55600   0.29014   0.73043   0.00000  Uiso   1.00
C2777  C     0.54502   0.28309   0.73676   0.00000  Uiso   1.00
N2778  N     0.56841   0.29732   0.70893   0.00000  Uiso   1.00
C2779  C     0.58080   0.29868   0.71411   0.00000  Uiso   1.00
C2780  C     0.59200   0.30547   0.70617   0.00000  Uiso   1.00
C2781  C     0.60573   0.30429   0.71085   0.00000  Uiso   1.00
C2782  C     0.61660   0.31033   0.70339   0.00000  Uiso   1.00
C2783  C     0.61395   0.31785   0.69114   0.00000  Uiso   1.00
C2784  C     0.60014   0.31915   0.68656   0.00000  Uiso   1.00
C2785  C     0.58927   0.31298   0.69396   0.00000  Uiso   1.00
C2786  C     0.62561   0.32409   0.68314   0.00000  Uiso   1.00
C2787  C     0.63720   0.32968   0.69004   0.00000  Uiso   1.00
C2788  C     0.64845   0.33491   0.68255   0.00000  Uiso   1.00
C2789  C     0.64832   0.33487   0.66797   0.00000  Uiso   1.00
C2790  C     0.63662   0.32960   0.66104   0.00000  Uiso   1.00
C2791  C     0.62542   0.32421   0.66853   0.00000  Uiso   1.00
C2792  C     0.53492   0.77581   0.22602   0.00000  Uiso   1.00
C2793  C     0.54143   0.77022   0.21427   0.00000  Uiso   1.00
C2794  C     0.55200   0.77756   0.20758   0.00000  Uiso   1.00
C2795  C     0.55629   0.79055   0.21252   0.00000  Uiso   1.00
C2796  C     0.54959   0.79626   0.22423   0.00000  Uiso   1.00
C2797  C     0.53900   0.78890   0.23091   0.00000  Uiso   1.00
N2798  N     0.56741   0.79744   0.20532   0.00000  Uiso   1.00
C2799  C     0.57377   0.80874   0.20906   0.00000  Uiso   1.00
C2800  C     0.58528   0.81439   0.20065   0.00000  Uiso   1.00
C2801  C     0.59226   0.82634   0.20518   0.00000  Uiso   1.00
C2802  C     0.60341   0.83168   0.19759   0.00000  Uiso   1.00
C2803  C     0.60781   0.82517   0.18529   0.00000  Uiso   1.00
C2804  C     0.60070   0.81327   0.18068   0.00000  Uiso   1.00
C2805  C     0.58956   0.80793   0.18829   0.00000  Uiso   1.00
C2806  C     0.61990   0.83061   0.17742   0.00000  Uiso   1.00
C2807  C     0.63180   0.83528   0.18447   0.00000  Uiso   1.00
C2808  C     0.64330   0.84012   0.17708   0.00000  Uiso   1.00
C2809  C     0.64315   0.84042   0.16250   0.00000  Uiso   1.00
C2810  C     0.63124   0.83585   0.15545   0.00000  Uiso   1.00
C2811  C     0.61973   0.83097   0.16283   0.00000  Uiso   1.00
C2812  C     0.03483   0.27521   0.22596   0.00000  Uiso   1.00
C2813  C     0.03878   0.27160   0.21242   0.00000  Uiso   1.00
C2814  C     0.04931   0.27896   0.20569   0.00000  Uiso   1.00
C2815  C     0.05601   0.29005   0.21229   0.00000  Uiso   1.00
C2816  C     0.05203   0.29365   0.22592   0.00000  Uiso   1.00
C2817  C     0.04149   0.28629   0.23265   0.00000  Uiso   1.00
N2818  N     0.06706   0.29694   0.20498   0.00000  Uiso   1.00
C2819  C     0.07311   0.30848   0.20850   0.00000  Uiso   1.00
C2820  C     0.08470   0.31410   0.20018   0.00000  Uiso   1.00
C2821  C     0.09136   0.32631   0.20451   0.00000  Uiso   1.00
C2822  C     0.10257   0.33164   0.19699   0.00000  Uiso   1.00
C2823  C     0.10733   0.32487   0.18497   0.00000  Uiso   1.00
C2824  C     0.10055   0.31272   0.18057   0.00000  Uiso   1.00
C2825  C     0.08936   0.30737   0.18810   0.00000  Uiso   1.00
C2826  C     0.11946   0.33032   0.17718   0.00000  Uiso   1.00
C2827  C     0.13118   0.33530   0.18430   0.00000  Uiso   1.00
C2828  C     0.14274   0.34014   0.17698   0.00000  Uiso   1.00
C2829  C     0.14280   0.34014   0.16239   0.00000  Uiso   1.00
C2830  C     0.13104   0.33528   0.15527   0.00000  Uiso   1.00
C2831  C     0.11949   0.33040   0.16258   0.00000  Uiso   1.00
C2832  C     0.03485   0.77574   0.72685   0.00000  Uiso   1.00
C2833  C     0.04149   0.76992   0.71529   0.00000  Uiso   1.00
C2834  C     0.05206   0.77719   0.70851   0.00000  Uiso   1.00
C2835  C     0.05622   0.79032   0.71319   0.00000  Uiso   1.00
C2836  C     0.04936   0.79626   0.72469   0.00000  Uiso   1.00
C2837  C     0.03878   0.78898   0.73145   0.00000  Uiso   1.00
N2838  N     0.06737   0.79713   0.70595   0.00000  Uiso   1.00
C2839  C     0.07381   0.80838   0.70972   0.00000  Uiso   1.00
C2840  C     0.08531   0.81401   0.70129   0.00000  Uiso   1.00
C2841  C     0.09232   0.82595   0.70581   0.00000  Uiso   1.00
C2842  C     0.10344   0.83130   0.69818   0.00000  Uiso   1.00
C2843  C     0.10778   0.82481   0.68585   0.00000  Uiso   1.00
C2844  C     0.10067   0.81292   0.68126   0.00000  Uiso   1.00
C2845  C     0.08955   0.80757   0.68890   0.00000  Uiso   1.00
C2846  C     0.11981   0.83029   0.67792   0.00000  Uiso   1.00
C2847  C     0.13172   0.83507   0.68488   0.00000  Uiso   1.00
C2848  C     0.14314   0.84000   0.67743   0.00000  Uiso   1.00
C2849  C     0.14291   0.84029   0.66286   0.00000  Uiso   1.00
C2850  C     0.13100   0.83559   0.65588   0.00000  Uiso   1.00
C2851  C     0.11957   0.83064   0.66332   0.00000  Uiso   1.00
C2852  C     0.24852   0.26170   0.45986   0.00000  Uiso   1.00
C2853  C     0.25403   0.26149   0.47316   0.00000  Uiso   1.00
N2854  N     0.24546   0.25433   0.48166   0.00000  Uiso   1.00
C2855  C     0.23718   0.24686   0.47316   0.00000  Uiso   1.00
C2856  C     0.23780   0.25232   0.45984   0.00000  Uiso   1.00
C2857  C     0.23215   0.23330   0.47610   0.00000  Uiso   1.00
C2858  C     0.23437   0.22620   0.48883   0.00000  Uiso   1.00
C2859  C     0.22667   0.21471   0.50712   0.00000  Uiso   1.00
C2860  C     0.26815   0.26460   0.47611   0.00000  Uiso   1.00
C2861  C     0.27486   0.26148   0.48885   0.00000  Uiso   1.00
C2862  C     0.28737   0.26739   0.49287   0.00000  Uiso   1.00
C2863  C     0.76270   0.75339   0.04017   0.00000  Uiso   1.00
C2864  C     0.76320   0.74798   0.02683   0.00000  Uiso   1.00
N2865  N     0.75516   0.75572   0.01833   0.00000  Uiso   1.00
C2866  C     0.74681   0.76314   0.02683   0.00000  Uiso   1.00
C2867  C     0.75225   0.76306   0.04017   0.00000  Uiso   1.00
C2868  C     0.73281   0.76673   0.02387   0.00000  Uiso   1.00
C2869  C     0.72597   0.76370   0.01116   0.00000  Uiso   1.00
C2870  C     0.71371   0.77011   0.99288   0.00000  Uiso   1.00
C2871  C     0.76786   0.73429   0.02388   0.00000  Uiso   1.00
C2872  C     0.76541   0.72724   0.01116   0.00000  Uiso   1.00
C2873  C     0.77277   0.71554   0.00712   0.00000  Uiso   1.00
N2874  N     0.65516   0.84517   0.15487   0.00000  Uiso   1.00
H2875  H     0.52796   0.27215   0.70776   0.00000  Uiso   1.00
H2876  H     0.54720   0.28483   0.69658   0.00000  Uiso   1.00
H2877  H     0.56359   0.29524   0.73695   0.00000  Uiso   1.00
H2878  H     0.54447   0.28261   0.74798   0.00000  Uiso   1.00
H2879  H     0.58332   0.29413   0.72408   0.00000  Uiso   1.00
H2880  H     0.60809   0.29849   0.72019   0.00000  Uiso   1.00
H2881  H     0.62710   0.30886   0.70709   0.00000  Uiso   1.00
H2882  H     0.59770   0.32505   0.67730   0.00000  Uiso   1.00
H2883  H     0.57875   0.31414   0.69017   0.00000  Uiso   1.00
H2884  H     0.63761   0.33001   0.70127   0.00000  Uiso   1.00
H2885  H     0.65737   0.33883   0.68817   0.00000  Uiso   1.00
H2886  H     0.63625   0.32949   0.64981   0.00000  Uiso   1.00
H2887  H     0.61678   0.31982   0.66286   0.00000  Uiso   1.00
H2888  H     0.53838   0.76012   0.21036   0.00000  Uiso   1.00
H2889  H     0.55698   0.77306   0.19857   0.00000  Uiso   1.00
H2890  H     0.55234   0.80633   0.22830   0.00000  Uiso   1.00
H2891  H     0.53399   0.79338   0.23993   0.00000  Uiso   1.00
H2892  H     0.57105   0.81405   0.21856   0.00000  Uiso   1.00
H2893  H     0.58912   0.83153   0.21466   0.00000  Uiso   1.00
H2894  H     0.60856   0.84096   0.20131   0.00000  Uiso   1.00
H2895  H     0.60395   0.80792   0.17135   0.00000  Uiso   1.00
H2896  H     0.58440   0.79867   0.18454   0.00000  Uiso   1.00
H2897  H     0.63232   0.83493   0.19569   0.00000  Uiso   1.00
H2898  H     0.65243   0.84344   0.18274   0.00000  Uiso   1.00
H2899  H     0.63085   0.83610   0.14422   0.00000  Uiso   1.00
H2900  H     0.61065   0.82761   0.15713   0.00000  Uiso   1.00
H2901  H     0.03375   0.26305   0.20713   0.00000  Uiso   1.00
H2902  H     0.05232   0.27599   0.19527   0.00000  Uiso   1.00
H2903  H     0.05712   0.30189   0.23156   0.00000  Uiso   1.00
H2904  H     0.03861   0.28910   0.24315   0.00000  Uiso   1.00
H2905  H     0.06980   0.31423   0.21756   0.00000  Uiso   1.00
H2906  H     0.08793   0.33170   0.21377   0.00000  Uiso   1.00
H2907  H     0.10748   0.34112   0.20054   0.00000  Uiso   1.00
H2908  H     0.10409   0.30719   0.17144   0.00000  Uiso   1.00
H2909  H     0.08445   0.29792   0.18450   0.00000  Uiso   1.00
H2910  H     0.13155   0.33518   0.19553   0.00000  Uiso   1.00
H2911  H     0.15175   0.34367   0.18270   0.00000  Uiso   1.00
H2912  H     0.13081   0.33531   0.14403   0.00000  Uiso   1.00
H2913  H     0.11054   0.32679   0.15682   0.00000  Uiso   1.00
H2914  H     0.03855   0.75971   0.71160   0.00000  Uiso   1.00
H2915  H     0.05716   0.77252   0.69965   0.00000  Uiso   1.00
H2916  H     0.05197   0.80647   0.72850   0.00000  Uiso   1.00
H2917  H     0.03366   0.79364   0.74031   0.00000  Uiso   1.00
H2918  H     0.07118   0.81364   0.71927   0.00000  Uiso   1.00
H2919  H     0.08921   0.83113   0.71530   0.00000  Uiso   1.00
H2920  H     0.10859   0.84058   0.70189   0.00000  Uiso   1.00
H2921  H     0.10388   0.80759   0.67190   0.00000  Uiso   1.00
H2922  H     0.08437   0.79832   0.68516   0.00000  Uiso   1.00
H2923  H     0.13232   0.83473   0.69610   0.00000  Uiso   1.00
H2924  H     0.15228   0.84340   0.68303   0.00000  Uiso   1.00
H2925  H     0.13056   0.83582   0.64465   0.00000  Uiso   1.00
H2926  H     0.11048   0.82722   0.65767   0.00000  Uiso   1.00
H2927  H     0.25312   0.26617   0.45063   0.00000  Uiso   1.00
H2928  H     0.23284   0.24833   0.45058   0.00000  Uiso   1.00
H2929  H     0.21980   0.20852   0.51350   0.00000  Uiso   1.00
H2930  H     0.29456   0.27317   0.48645   0.00000  Uiso   1.00
H2931  H     0.76747   0.74919   0.04944   0.00000  Uiso   1.00
H2932  H     0.74769   0.76751   0.04943   0.00000  Uiso   1.00
H2933  H     0.70682   0.77629   0.98650   0.00000  Uiso   1.00
H2934  H     0.77946   0.70915   0.01350   0.00000  Uiso   1.00
C2935  C     0.46505   0.27643   0.27136   0.00000  Uiso   1.00
C2936  C     0.46428   0.27722   0.28587   0.00000  Uiso   1.00
C2937  C     0.45337   0.28441   0.29220   0.00000  Uiso   1.00
C2938  C     0.44298   0.29062   0.28415   0.00000  Uiso   1.00
C2939  C     0.44400   0.29014   0.26957   0.00000  Uiso   1.00
C2940  C     0.45498   0.28309   0.26324   0.00000  Uiso   1.00
N2941  N     0.43159   0.29732   0.29107   0.00000  Uiso   1.00
C2942  C     0.41920   0.29868   0.28589   0.00000  Uiso   1.00
C2943  C     0.40800   0.30547   0.29383   0.00000  Uiso   1.00
C2944  C     0.39427   0.30429   0.28915   0.00000  Uiso   1.00
C2945  C     0.38340   0.31033   0.29661   0.00000  Uiso   1.00
C2946  C     0.38605   0.31785   0.30886   0.00000  Uiso   1.00
C2947  C     0.39986   0.31915   0.31344   0.00000  Uiso   1.00
C2948  C     0.41073   0.31298   0.30604   0.00000  Uiso   1.00
C2949  C     0.37439   0.32409   0.31686   0.00000  Uiso   1.00
C2950  C     0.36280   0.32968   0.30996   0.00000  Uiso   1.00
C2951  C     0.35155   0.33491   0.31745   0.00000  Uiso   1.00
C2952  C     0.35168   0.33487   0.33203   0.00000  Uiso   1.00
C2953  C     0.36338   0.32960   0.33896   0.00000  Uiso   1.00
C2954  C     0.37458   0.32421   0.33147   0.00000  Uiso   1.00
C2955  C     0.46508   0.77581   0.77398   0.00000  Uiso   1.00
C2956  C     0.45857   0.77022   0.78573   0.00000  Uiso   1.00
C2957  C     0.44800   0.77756   0.79242   0.00000  Uiso   1.00
C2958  C     0.44371   0.79055   0.78748   0.00000  Uiso   1.00
C2959  C     0.45041   0.79626   0.77577   0.00000  Uiso   1.00
C2960  C     0.46100   0.78890   0.76909   0.00000  Uiso   1.00
N2961  N     0.43259   0.79744   0.79468   0.00000  Uiso   1.00
C2962  C     0.42623   0.80874   0.79094   0.00000  Uiso   1.00
C2963  C     0.41472   0.81439   0.79935   0.00000  Uiso   1.00
C2964  C     0.40774   0.82634   0.79482   0.00000  Uiso   1.00
C2965  C     0.39659   0.83168   0.80241   0.00000  Uiso   1.00
C2966  C     0.39219   0.82517   0.81471   0.00000  Uiso   1.00
C2967  C     0.39930   0.81327   0.81932   0.00000  Uiso   1.00
C2968  C     0.41044   0.80793   0.81171   0.00000  Uiso   1.00
C2969  C     0.38010   0.83061   0.82258   0.00000  Uiso   1.00
C2970  C     0.36820   0.83528   0.81553   0.00000  Uiso   1.00
C2971  C     0.35670   0.84012   0.82292   0.00000  Uiso   1.00
C2972  C     0.35685   0.84042   0.83750   0.00000  Uiso   1.00
C2973  C     0.36876   0.83585   0.84455   0.00000  Uiso   1.00
C2974  C     0.38027   0.83097   0.83717   0.00000  Uiso   1.00
C2975  C     0.96517   0.27521   0.77404   0.00000  Uiso   1.00
C2976  C     0.96122   0.27160   0.78758   0.00000  Uiso   1.00
C2977  C     0.95069   0.27896   0.79431   0.00000  Uiso   1.00
C2978  C     0.94399   0.29005   0.78771   0.00000  Uiso   1.00
C2979  C     0.94797   0.29365   0.77408   0.00000  Uiso   1.00
C2980  C     0.95851   0.28629   0.76735   0.00000  Uiso   1.00
N2981  N     0.93294   0.29694   0.79502   0.00000  Uiso   1.00
C2982  C     0.92689   0.30848   0.79150   0.00000  Uiso   1.00
C2983  C     0.91530   0.31410   0.79982   0.00000  Uiso   1.00
C2984  C     0.90864   0.32631   0.79549   0.00000  Uiso   1.00
C2985  C     0.89743   0.33164   0.80301   0.00000  Uiso   1.00
C2986  C     0.89267   0.32487   0.81503   0.00000  Uiso   1.00
C2987  C     0.89945   0.31272   0.81943   0.00000  Uiso   1.00
C2988  C     0.91064   0.30737   0.81190   0.00000  Uiso   1.00
C2989  C     0.88054   0.33032   0.82282   0.00000  Uiso   1.00
C2990  C     0.86882   0.33530   0.81570   0.00000  Uiso   1.00
C2991  C     0.85726   0.34014   0.82302   0.00000  Uiso   1.00
C2992  C     0.85720   0.34014   0.83761   0.00000  Uiso   1.00
C2993  C     0.86896   0.33528   0.84473   0.00000  Uiso   1.00
C2994  C     0.88051   0.33040   0.83742   0.00000  Uiso   1.00
C2995  C     0.96515   0.77574   0.27315   0.00000  Uiso   1.00
C2996  C     0.95851   0.76992   0.28471   0.00000  Uiso   1.00
C2997  C     0.94794   0.77719   0.29149   0.00000  Uiso   1.00
C2998  C     0.94378   0.79032   0.28681   0.00000  Uiso   1.00
C2999  C     0.95064   0.79626   0.27531   0.00000  Uiso   1.00
C3000  C     0.96122   0.78898   0.26855   0.00000  Uiso   1.00
N3001  N     0.93263   0.79713   0.29405   0.00000  Uiso   1.00
C3002  C     0.92619   0.80838   0.29028   0.00000  Uiso   1.00
C3003  C     0.91469   0.81401   0.29871   0.00000  Uiso   1.00
C3004  C     0.90768   0.82595   0.29419   0.00000  Uiso   1.00
C3005  C     0.89656   0.83130   0.30182   0.00000  Uiso   1.00
C3006  C     0.89222   0.82481   0.31415   0.00000  Uiso   1.00
C3007  C     0.89933   0.81292   0.31874   0.00000  Uiso   1.00
C3008  C     0.91045   0.80757   0.31110   0.00000  Uiso   1.00
C3009  C     0.88019   0.83029   0.32208   0.00000  Uiso   1.00
C3010  C     0.86828   0.83507   0.31512   0.00000  Uiso   1.00
C3011  C     0.85686   0.84000   0.32257   0.00000  Uiso   1.00
C3012  C     0.85709   0.84029   0.33714   0.00000  Uiso   1.00
C3013  C     0.86900   0.83559   0.34412   0.00000  Uiso   1.00
C3014  C     0.88043   0.83064   0.33668   0.00000  Uiso   1.00
C3015  C     0.75148   0.26170   0.54014   0.00000  Uiso   1.00
C3016  C     0.74597   0.26149   0.52684   0.00000  Uiso   1.00
N3017  N     0.75454   0.25433   0.51834   0.00000  Uiso   1.00
C3018  C     0.76282   0.24686   0.52684   0.00000  Uiso   1.00
C3019  C     0.76220   0.25232   0.54016   0.00000  Uiso   1.00
C3020  C     0.76785   0.23330   0.52390   0.00000  Uiso   1.00
C3021  C     0.76563   0.22620   0.51117   0.00000  Uiso   1.00
C3022  C     0.77333   0.21471   0.49288   0.00000  Uiso   1.00
C3023  C     0.73185   0.26460   0.52389   0.00000  Uiso   1.00
C3024  C     0.72514   0.26148   0.51115   0.00000  Uiso   1.00
C3025  C     0.71263   0.26739   0.50713   0.00000  Uiso   1.00
C3026  C     0.23730   0.75339   0.95983   0.00000  Uiso   1.00
C3027  C     0.23680   0.74798   0.97317   0.00000  Uiso   1.00
N3028  N     0.24484   0.75572   0.98167   0.00000  Uiso   1.00
C3029  C     0.25319   0.76314   0.97317   0.00000  Uiso   1.00
C3030  C     0.24775   0.76306   0.95983   0.00000  Uiso   1.00
C3031  C     0.26719   0.76673   0.97613   0.00000  Uiso   1.00
C3032  C     0.27403   0.76370   0.98884   0.00000  Uiso   1.00
C3033  C     0.28629   0.77011   0.00712   0.00000  Uiso   1.00
C3034  C     0.23214   0.73429   0.97612   0.00000  Uiso   1.00
C3035  C     0.23459   0.72724   0.98884   0.00000  Uiso   1.00
C3036  C     0.22723   0.71554   0.99288   0.00000  Uiso   1.00
N3037  N     0.34484   0.84517   0.84513   0.00000  Uiso   1.00
H3038  H     0.47204   0.27215   0.29224   0.00000  Uiso   1.00
H3039  H     0.45280   0.28483   0.30342   0.00000  Uiso   1.00
H3040  H     0.43641   0.29524   0.26305   0.00000  Uiso   1.00
H3041  H     0.45553   0.28261   0.25202   0.00000  Uiso   1.00
H3042  H     0.41668   0.29413   0.27592   0.00000  Uiso   1.00
H3043  H     0.39191   0.29849   0.27981   0.00000  Uiso   1.00
H3044  H     0.37290   0.30886   0.29291   0.00000  Uiso   1.00
H3045  H     0.40230   0.32505   0.32270   0.00000  Uiso   1.00
H3046  H     0.42125   0.31414   0.30983   0.00000  Uiso   1.00
H3047  H     0.36239   0.33001   0.29873   0.00000  Uiso   1.00
H3048  H     0.34263   0.33883   0.31183   0.00000  Uiso   1.00
H3049  H     0.36375   0.32949   0.35019   0.00000  Uiso   1.00
H3050  H     0.38322   0.31982   0.33714   0.00000  Uiso   1.00
H3051  H     0.46162   0.76012   0.78964   0.00000  Uiso   1.00
H3052  H     0.44302   0.77306   0.80143   0.00000  Uiso   1.00
H3053  H     0.44766   0.80633   0.77170   0.00000  Uiso   1.00
H3054  H     0.46601   0.79338   0.76007   0.00000  Uiso   1.00
H3055  H     0.42895   0.81405   0.78144   0.00000  Uiso   1.00
H3056  H     0.41088   0.83153   0.78534   0.00000  Uiso   1.00
H3057  H     0.39144   0.84096   0.79869   0.00000  Uiso   1.00
H3058  H     0.39605   0.80792   0.82865   0.00000  Uiso   1.00
H3059  H     0.41560   0.79867   0.81546   0.00000  Uiso   1.00
H3060  H     0.36768   0.83493   0.80431   0.00000  Uiso   1.00
H3061  H     0.34757   0.84344   0.81726   0.00000  Uiso   1.00
H3062  H     0.36915   0.83610   0.85578   0.00000  Uiso   1.00
H3063  H     0.38935   0.82761   0.84287   0.00000  Uiso   1.00
H3064  H     0.96625   0.26305   0.79287   0.00000  Uiso   1.00
H3065  H     0.94768   0.27599   0.80473   0.00000  Uiso   1.00
H3066  H     0.94288   0.30189   0.76844   0.00000  Uiso   1.00
H3067  H     0.96139   0.28910   0.75685   0.00000  Uiso   1.00
H3068  H     0.93020   0.31423   0.78244   0.00000  Uiso   1.00
H3069  H     0.91207   0.33170   0.78623   0.00000  Uiso   1.00
H3070  H     0.89252   0.34112   0.79946   0.00000  Uiso   1.00
H3071  H     0.89591   0.30719   0.82856   0.00000  Uiso   1.00
H3072  H     0.91555   0.29792   0.81550   0.00000  Uiso   1.00
H3073  H     0.86845   0.33518   0.80447   0.00000  Uiso   1.00
H3074  H     0.84825   0.34367   0.81730   0.00000  Uiso   1.00
H3075  H     0.86919   0.33531   0.85597   0.00000  Uiso   1.00
H3076  H     0.88946   0.32679   0.84318   0.00000  Uiso   1.00
H3077  H     0.96145   0.75971   0.28840   0.00000  Uiso   1.00
H3078  H     0.94284   0.77252   0.30035   0.00000  Uiso   1.00
H3079  H     0.94803   0.80647   0.27150   0.00000  Uiso   1.00
H3080  H     0.96634   0.79364   0.25969   0.00000  Uiso   1.00
H3081  H     0.92882   0.81364   0.28073   0.00000  Uiso   1.00
H3082  H     0.91079   0.83113   0.28470   0.00000  Uiso   1.00
H3083  H     0.89141   0.84058   0.29811   0.00000  Uiso   1.00
H3084  H     0.89612   0.80759   0.32810   0.00000  Uiso   1.00
H3085  H     0.91563   0.79832   0.31484   0.00000  Uiso   1.00
H3086  H     0.86768   0.83473   0.30390   0.00000  Uiso   1.00
H3087  H     0.84772   0.84340   0.31697   0.00000  Uiso   1.00
H3088  H     0.86944   0.83582   0.35535   0.00000  Uiso   1.00
H3089  H     0.88952   0.82722   0.34233   0.00000  Uiso   1.00
H3090  H     0.74688   0.26617   0.54937   0.00000  Uiso   1.00
H3091  H     0.76716   0.24833   0.54942   0.00000  Uiso   1.00
H3092  H     0.78020   0.20852   0.48650   0.00000  Uiso   1.00
H3093  H     0.70544   0.27317   0.51355   0.00000  Uiso   1.00
H3094  H     0.23253   0.74919   0.95056   0.00000  Uiso   1.00
H3095  H     0.25231   0.76751   0.95057   0.00000  Uiso   1.00
H3096  H     0.29318   0.77629   0.01350   0.00000  Uiso   1.00
H3097  H     0.22054   0.70915   0.98650   0.00000  Uiso   1.00
C3098  C     0.46505   0.72357   0.72864   0.00000  Uiso   1.00
C3099  C     0.46428   0.72278   0.71413   0.00000  Uiso   1.00
C3100  C     0.45337   0.71559   0.70780   0.00000  Uiso   1.00
C3101  C     0.44298   0.70938   0.71585   0.00000  Uiso   1.00
C3102  C     0.44400   0.70986   0.73043   0.00000  Uiso   1.00
C3103  C     0.45498   0.71691   0.73676   0.00000  Uiso   1.00
N3104  N     0.43159   0.70268   0.70893   0.00000  Uiso   1.00
C3105  C     0.41920   0.70132   0.71411   0.00000  Uiso   1.00
C3106  C     0.40800   0.69453   0.70617   0.00000  Uiso   1.00
C3107  C     0.39427   0.69571   0.71085   0.00000  Uiso   1.00
C3108  C     0.38340   0.68967   0.70339   0.00000  Uiso   1.00
C3109  C     0.38605   0.68215   0.69114   0.00000  Uiso   1.00
C3110  C     0.39986   0.68085   0.68656   0.00000  Uiso   1.00
C3111  C     0.41073   0.68702   0.69396   0.00000  Uiso   1.00
C3112  C     0.37439   0.67591   0.68314   0.00000  Uiso   1.00
C3113  C     0.36280   0.67032   0.69004   0.00000  Uiso   1.00
C3114  C     0.35155   0.66509   0.68255   0.00000  Uiso   1.00
C3115  C     0.35168   0.66513   0.66797   0.00000  Uiso   1.00
C3116  C     0.36338   0.67040   0.66104   0.00000  Uiso   1.00
C3117  C     0.37458   0.67579   0.66853   0.00000  Uiso   1.00
C3118  C     0.46508   0.22419   0.22602   0.00000  Uiso   1.00
C3119  C     0.45857   0.22978   0.21427   0.00000  Uiso   1.00
C3120  C     0.44800   0.22244   0.20758   0.00000  Uiso   1.00
C3121  C     0.44371   0.20945   0.21252   0.00000  Uiso   1.00
C3122  C     0.45041   0.20374   0.22423   0.00000  Uiso   1.00
C3123  C     0.46100   0.21110   0.23091   0.00000  Uiso   1.00
N3124  N     0.43259   0.20256   0.20532   0.00000  Uiso   1.00
C3125  C     0.42623   0.19126   0.20906   0.00000  Uiso   1.00
C3126  C     0.41472   0.18561   0.20065   0.00000  Uiso   1.00
C3127  C     0.40774   0.17366   0.20518   0.00000  Uiso   1.00
C3128  C     0.39659   0.16832   0.19759   0.00000  Uiso   1.00
C3129  C     0.39219   0.17483   0.18529   0.00000  Uiso   1.00
C3130  C     0.39930   0.18673   0.18068   0.00000  Uiso   1.00
C3131  C     0.41044   0.19207   0.18829   0.00000  Uiso   1.00
C3132  C     0.38010   0.16939   0.17742   0.00000  Uiso   1.00
C3133  C     0.36820   0.16472   0.18447   0.00000  Uiso   1.00
C3134  C     0.35670   0.15988   0.17708   0.00000  Uiso   1.00
C3135  C     0.35685   0.15958   0.16250   0.00000  Uiso   1.00
C3136  C     0.36876   0.16415   0.15545   0.00000  Uiso   1.00
C3137  C     0.38027   0.16903   0.16283   0.00000  Uiso   1.00
C3138  C     0.96517   0.72479   0.22596   0.00000  Uiso   1.00
C3139  C     0.96122   0.72840   0.21242   0.00000  Uiso   1.00
C3140  C     0.95069   0.72104   0.20569   0.00000  Uiso   1.00
C3141  C     0.94399   0.70995   0.21229   0.00000  Uiso   1.00
C3142  C     0.94797   0.70635   0.22592   0.00000  Uiso   1.00
C3143  C     0.95851   0.71371   0.23265   0.00000  Uiso   1.00
N3144  N     0.93294   0.70306   0.20498   0.00000  Uiso   1.00
C3145  C     0.92689   0.69152   0.20850   0.00000  Uiso   1.00
C3146  C     0.91530   0.68590   0.20018   0.00000  Uiso   1.00
C3147  C     0.90864   0.67369   0.20451   0.00000  Uiso   1.00
C3148  C     0.89743   0.66836   0.19699   0.00000  Uiso   1.00
C3149  C     0.89267   0.67513   0.18497   0.00000  Uiso   1.00
C3150  C     0.89945   0.68728   0.18057   0.00000  Uiso   1.00
C3151  C     0.91064   0.69263   0.18810   0.00000  Uiso   1.00
C3152  C     0.88054   0.66968   0.17718   0.00000  Uiso   1.00
C3153  C     0.86882   0.66470   0.18430   0.00000  Uiso   1.00
C3154  C     0.85726   0.65986   0.17698   0.00000  Uiso   1.00
C3155  C     0.85720   0.65986   0.16239   0.00000  Uiso   1.00
C3156  C     0.86896   0.66472   0.15527   0.00000  Uiso   1.00
C3157  C     0.88051   0.66960   0.16258   0.00000  Uiso   1.00
C3158  C     0.96515   0.22426   0.72685   0.00000  Uiso   1.00
C3159  C     0.95851   0.23008   0.71529   0.00000  Uiso   1.00
C3160  C     0.94794   0.22281   0.70851   0.00000  Uiso   1.00
C3161  C     0.94378   0.20968   0.71319   0.00000  Uiso   1.00
C3162  C     0.95064   0.20374   0.72469   0.00000  Uiso   1.00
C3163  C     0.96122   0.21102   0.73145   0.00000  Uiso   1.00
N3164  N     0.93263   0.20287   0.70595   0.00000  Uiso   1.00
C3165  C     0.92619   0.19162   0.70972   0.00000  Uiso   1.00
C3166  C     0.91469   0.18599   0.70129   0.00000  Uiso   1.00
C3167  C     0.90768   0.17405   0.70581   0.00000  Uiso   1.00
C3168  C     0.89656   0.16870   0.69818   0.00000  Uiso   1.00
C3169  C     0.89222   0.17519   0.68585   0.00000  Uiso   1.00
C3170  C     0.89933   0.18708   0.68126   0.00000  Uiso   1.00
C3171  C     0.91045   0.19243   0.68890   0.00000  Uiso   1.00
C3172  C     0.88019   0.16971   0.67792   0.00000  Uiso   1.00
C3173  C     0.86828   0.16493   0.68488   0.00000  Uiso   1.00
C3174  C     0.85686   0.16000   0.67743   0.00000  Uiso   1.00
C3175  C     0.85709   0.15971   0.66286   0.00000  Uiso   1.00
C3176  C     0.86900   0.16441   0.65588   0.00000  Uiso   1.00
C3177  C     0.88043   0.16936   0.66332   0.00000  Uiso   1.00
C3178  C     0.75148   0.73830   0.45986   0.00000  Uiso   1.00
C3179  C     0.74597   0.73851   0.47316   0.00000  Uiso   1.00
N3180  N     0.75454   0.74567   0.48166   0.00000  Uiso   1.00
C3181  C     0.76282   0.75314   0.47316   0.00000  Uiso   1.00
C3182  C     0.76220   0.74768   0.45984   0.00000  Uiso   1.00
C3183  C     0.76785   0.76670   0.47610   0.00000  Uiso   1.00
C3184  C     0.76563   0.77380   0.48883   0.00000  Uiso   1.00
C3185  C     0.77333   0.78529   0.50712   0.00000  Uiso   1.00
C3186  C     0.73185   0.73540   0.47611   0.00000  Uiso   1.00
C3187  C     0.72514   0.73852   0.48885   0.00000  Uiso   1.00
C3188  C     0.71263   0.73261   0.49287   0.00000  Uiso   1.00
C3189  C     0.23730   0.24661   0.04017   0.00000  Uiso   1.00
C3190  C     0.23680   0.25202   0.02683   0.00000  Uiso   1.00
N3191  N     0.24484   0.24428   0.01833   0.00000  Uiso   1.00
C3192  C     0.25319   0.23686   0.02683   0.00000  Uiso   1.00
C3193  C     0.24775   0.23694   0.04017   0.00000  Uiso   1.00
C3194  C     0.26719   0.23327   0.02387   0.00000  Uiso   1.00
C3195  C     0.27403   0.23630   0.01116   0.00000  Uiso   1.00
C3196  C     0.28629   0.22989   0.99288   0.00000  Uiso   1.00
C3197  C     0.23214   0.26571   0.02388   0.00000  Uiso   1.00
C3198  C     0.23459   0.27276   0.01116   0.00000  Uiso   1.00
C3199  C     0.22723   0.28446   0.00712   0.00000  Uiso   1.00
N3200  N     0.34484   0.15483   0.15487   0.00000  Uiso   1.00
H3201  H     0.47204   0.72785   0.70776   0.00000  Uiso   1.00
H3202  H     0.45280   0.71517   0.69658   0.00000  Uiso   1.00
H3203  H     0.43641   0.70476   0.73695   0.00000  Uiso   1.00
H3204  H     0.45553   0.71739   0.74798   0.00000  Uiso   1.00
H3205  H     0.41668   0.70587   0.72408   0.00000  Uiso   1.00
H3206  H     0.39191   0.70151   0.72019   0.00000  Uiso   1.00
H3207  H     0.37290   0.69114   0.70709   0.00000  Uiso   1.00
H3208  H     0.40230   0.67495   0.67730   0.00000  Uiso   1.00
H3209  H     0.42125   0.68586   0.69017   0.00000  Uiso   1.00
H3210  H     0.36239   0.66999   0.70127   0.00000  Uiso   1.00
H3211  H     0.34263   0.66117   0.68817   0.00000  Uiso   1.00
H3212  H     0.36375   0.67051   0.64981   0.00000  Uiso   1.00
H3213  H     0.38322   0.68018   0.66286   0.00000  Uiso   1.00
H3214  H     0.46162   0.23988   0.21036   0.00000  Uiso   1.00
H3215  H     0.44302   0.22694   0.19857   0.00000  Uiso   1.00
H3216  H     0.44766   0.19367   0.22830   0.00000  Uiso   1.00
H3217  H     0.46601   0.20662   0.23993   0.00000  Uiso   1.00
H3218  H     0.42895   0.18595   0.21856   0.00000  Uiso   1.00
H3219  H     0.41088   0.16847   0.21466   0.00000  Uiso   1.00
H3220  H     0.39144   0.15904   0.20131   0.00000  Uiso   1.00
H3221  H     0.39605   0.19208   0.17135   0.00000  Uiso   1.00
H3222  H     0.41560   0.20133   0.18454   0.00000  Uiso   1.00
H3223  H     0.36768   0.16507   0.19569   0.00000  Uiso   1.00
H3224  H     0.34757   0.15656   0.18274   0.00000  Uiso   1.00
H3225  H     0.36915   0.16390   0.14422   0.00000  Uiso   1.00
H3226  H     0.38935   0.17239   0.15713   0.00000  Uiso   1.00
H3227  H     0.96625   0.73695   0.20713   0.00000  Uiso   1.00
H3228  H     0.94768   0.72401   0.19527   0.00000  Uiso   1.00
H3229  H     0.94288   0.69811   0.23156   0.00000  Uiso   1.00
H3230  H     0.96139   0.71090   0.24315   0.00000  Uiso   1.00
H3231  H     0.93020   0.68577   0.21756   0.00000  Uiso   1.00
H3232  H     0.91207   0.66830   0.21377   0.00000  Uiso   1.00
H3233  H     0.89252   0.65888   0.20054   0.00000  Uiso   1.00
H3234  H     0.89591   0.69281   0.17144   0.00000  Uiso   1.00
H3235  H     0.91555   0.70208   0.18450   0.00000  Uiso   1.00
H3236  H     0.86845   0.66482   0.19553   0.00000  Uiso   1.00
H3237  H     0.84825   0.65633   0.18270   0.00000  Uiso   1.00
H3238  H     0.86919   0.66469   0.14403   0.00000  Uiso   1.00
H3239  H     0.88946   0.67321   0.15682   0.00000  Uiso   1.00
H3240  H     0.96145   0.24029   0.71160   0.00000  Uiso   1.00
H3241  H     0.94284   0.22748   0.69965   0.00000  Uiso   1.00
H3242  H     0.94803   0.19353   0.72850   0.00000  Uiso   1.00
H3243  H     0.96634   0.20636   0.74031   0.00000  Uiso   1.00
H3244  H     0.92882   0.18636   0.71927   0.00000  Uiso   1.00
H3245  H     0.91079   0.16887   0.71530   0.00000  Uiso   1.00
H3246  H     0.89141   0.15942   0.70189   0.00000  Uiso   1.00
H3247  H     0.89612   0.19241   0.67190   0.00000  Uiso   1.00
H3248  H     0.91563   0.20168   0.68516   0.00000  Uiso   1.00
H3249  H     0.86768   0.16527   0.69610   0.00000  Uiso   1.00
H3250  H     0.84772   0.15660   0.68303   0.00000  Uiso   1.00
H3251  H     0.86944   0.16418   0.64465   0.00000  Uiso   1.00
H3252  H     0.88952   0.17278   0.65767   0.00000  Uiso   1.00
H3253  H     0.74688   0.73383   0.45063   0.00000  Uiso   1.00
H3254  H     0.76716   0.75167   0.45058   0.00000  Uiso   1.00
H3255  H     0.78020   0.79148   0.51350   0.00000  Uiso   1.00
H3256  H     0.70544   0.72683   0.48645   0.00000  Uiso   1.00
H3257  H     0.23253   0.25081   0.04944   0.00000  Uiso   1.00
H3258  H     0.25231   0.23249   0.04943   0.00000  Uiso   1.00
H3259  H     0.29318   0.22371   0.98650   0.00000  Uiso   1.00
H3260  H     0.22054   0.29085   0.01350   0.00000  Uiso   1.00
C3261  C     0.27136   0.53495   0.72357   0.00000  Uiso   1.00
C3262  C     0.28587   0.53572   0.72278   0.00000  Uiso   1.00
C3263  C     0.29220   0.54663   0.71559   0.00000  Uiso   1.00
C3264  C     0.28415   0.55702   0.70938   0.00000  Uiso   1.00
C3265  C     0.26957   0.55600   0.70986   0.00000  Uiso   1.00
C3266  C     0.26324   0.54502   0.71691   0.00000  Uiso   1.00
N3267  N     0.29107   0.56841   0.70268   0.00000  Uiso   1.00
C3268  C     0.28589   0.58080   0.70132   0.00000  Uiso   1.00
C3269  C     0.29383   0.59200   0.69453   0.00000  Uiso   1.00
C3270  C     0.28915   0.60573   0.69571   0.00000  Uiso   1.00
C3271  C     0.29661   0.61660   0.68967   0.00000  Uiso   1.00
C3272  C     0.30886   0.61395   0.68215   0.00000  Uiso   1.00
C3273  C     0.31344   0.60014   0.68085   0.00000  Uiso   1.00
C3274  C     0.30604   0.58927   0.68702   0.00000  Uiso   1.00
C3275  C     0.31686   0.62561   0.67591   0.00000  Uiso   1.00
C3276  C     0.30996   0.63720   0.67032   0.00000  Uiso   1.00
C3277  C     0.31745   0.64845   0.66509   0.00000  Uiso   1.00
C3278  C     0.33203   0.64832   0.66513   0.00000  Uiso   1.00
C3279  C     0.33896   0.63662   0.67040   0.00000  Uiso   1.00
C3280  C     0.33147   0.62542   0.67579   0.00000  Uiso   1.00
C3281  C     0.77398   0.53492   0.22419   0.00000  Uiso   1.00
C3282  C     0.78573   0.54143   0.22978   0.00000  Uiso   1.00
C3283  C     0.79242   0.55200   0.22244   0.00000  Uiso   1.00
C3284  C     0.78748   0.55629   0.20945   0.00000  Uiso   1.00
C3285  C     0.77577   0.54959   0.20374   0.00000  Uiso   1.00
C3286  C     0.76909   0.53900   0.21110   0.00000  Uiso   1.00
N3287  N     0.79468   0.56741   0.20256   0.00000  Uiso   1.00
C3288  C     0.79094   0.57377   0.19126   0.00000  Uiso   1.00
C3289  C     0.79935   0.58528   0.18561   0.00000  Uiso   1.00
C3290  C     0.79482   0.59226   0.17366   0.00000  Uiso   1.00
C3291  C     0.80241   0.60341   0.16832   0.00000  Uiso   1.00
C3292  C     0.81471   0.60781   0.17483   0.00000  Uiso   1.00
C3293  C     0.81932   0.60070   0.18673   0.00000  Uiso   1.00
C3294  C     0.81171   0.58956   0.19207   0.00000  Uiso   1.00
C3295  C     0.82258   0.61990   0.16939   0.00000  Uiso   1.00
C3296  C     0.81553   0.63180   0.16472   0.00000  Uiso   1.00
C3297  C     0.82292   0.64330   0.15988   0.00000  Uiso   1.00
C3298  C     0.83750   0.64315   0.15958   0.00000  Uiso   1.00
C3299  C     0.84455   0.63124   0.16415   0.00000  Uiso   1.00
C3300  C     0.83717   0.61973   0.16903   0.00000  Uiso   1.00
C3301  C     0.77404   0.03483   0.72479   0.00000  Uiso   1.00
C3302  C     0.78758   0.03878   0.72840   0.00000  Uiso   1.00
C3303  C     0.79431   0.04931   0.72104   0.00000  Uiso   1.00
C3304  C     0.78771   0.05601   0.70995   0.00000  Uiso   1.00
C3305  C     0.77408   0.05203   0.70635   0.00000  Uiso   1.00
C3306  C     0.76735   0.04149   0.71371   0.00000  Uiso   1.00
N3307  N     0.79502   0.06706   0.70306   0.00000  Uiso   1.00
C3308  C     0.79150   0.07311   0.69152   0.00000  Uiso   1.00
C3309  C     0.79982   0.08470   0.68590   0.00000  Uiso   1.00
C3310  C     0.79549   0.09136   0.67369   0.00000  Uiso   1.00
C3311  C     0.80301   0.10257   0.66836   0.00000  Uiso   1.00
C3312  C     0.81503   0.10733   0.67513   0.00000  Uiso   1.00
C3313  C     0.81943   0.10055   0.68728   0.00000  Uiso   1.00
C3314  C     0.81190   0.08936   0.69263   0.00000  Uiso   1.00
C3315  C     0.82282   0.11946   0.66968   0.00000  Uiso   1.00
C3316  C     0.81570   0.13118   0.66470   0.00000  Uiso   1.00
C3317  C     0.82302   0.14274   0.65986   0.00000  Uiso   1.00
C3318  C     0.83761   0.14280   0.65986   0.00000  Uiso   1.00
C3319  C     0.84473   0.13104   0.66472   0.00000  Uiso   1.00
C3320  C     0.83742   0.11949   0.66960   0.00000  Uiso   1.00
C3321  C     0.27315   0.03485   0.22426   0.00000  Uiso   1.00
C3322  C     0.28471   0.04149   0.23008   0.00000  Uiso   1.00
C3323  C     0.29149   0.05206   0.22281   0.00000  Uiso   1.00
C3324  C     0.28681   0.05622   0.20968   0.00000  Uiso   1.00
C3325  C     0.27531   0.04936   0.20374   0.00000  Uiso   1.00
C3326  C     0.26855   0.03878   0.21102   0.00000  Uiso   1.00
N3327  N     0.29405   0.06737   0.20287   0.00000  Uiso   1.00
C3328  C     0.29028   0.07381   0.19162   0.00000  Uiso   1.00
C3329  C     0.29871   0.08531   0.18599   0.00000  Uiso   1.00
C3330  C     0.29419   0.09232   0.17405   0.00000  Uiso   1.00
C3331  C     0.30182   0.10344   0.16870   0.00000  Uiso   1.00
C3332  C     0.31415   0.10778   0.17519   0.00000  Uiso   1.00
C3333  C     0.31874   0.10067   0.18708   0.00000  Uiso   1.00
C3334  C     0.31110   0.08955   0.19243   0.00000  Uiso   1.00
C3335  C     0.32208   0.11981   0.16971   0.00000  Uiso   1.00
C3336  C     0.31512   0.13172   0.16493   0.00000  Uiso   1.00
C3337  C     0.32257   0.14314   0.16000   0.00000  Uiso   1.00
C3338  C     0.33714   0.14291   0.15971   0.00000  Uiso   1.00
C3339  C     0.34412   0.13100   0.16441   0.00000  Uiso   1.00
C3340  C     0.33668   0.11957   0.16936   0.00000  Uiso   1.00
C3341  C     0.54014   0.24852   0.73830   0.00000  Uiso   1.00
C3342  C     0.52684   0.25403   0.73851   0.00000  Uiso   1.00
N3343  N     0.51834   0.24546   0.74567   0.00000  Uiso   1.00
C3344  C     0.52684   0.23718   0.75314   0.00000  Uiso   1.00
C3345  C     0.54016   0.23780   0.74768   0.00000  Uiso   1.00
C3346  C     0.52390   0.23215   0.76670   0.00000  Uiso   1.00
C3347  C     0.51117   0.23437   0.77380   0.00000  Uiso   1.00
C3348  C     0.49288   0.22667   0.78529   0.00000  Uiso   1.00
C3349  C     0.52389   0.26815   0.73540   0.00000  Uiso   1.00
C3350  C     0.51115   0.27486   0.73852   0.00000  Uiso   1.00
C3351  C     0.50713   0.28737   0.73261   0.00000  Uiso   1.00
C3352  C     0.95983   0.76270   0.24661   0.00000  Uiso   1.00
C3353  C     0.97317   0.76320   0.25202   0.00000  Uiso   1.00
N3354  N     0.98167   0.75516   0.24428   0.00000  Uiso   1.00
C3355  C     0.97317   0.74681   0.23686   0.00000  Uiso   1.00
C3356  C     0.95983   0.75225   0.23694   0.00000  Uiso   1.00
C3357  C     0.97613   0.73281   0.23327   0.00000  Uiso   1.00
C3358  C     0.98884   0.72597   0.23630   0.00000  Uiso   1.00
C3359  C     0.00712   0.71371   0.22989   0.00000  Uiso   1.00
C3360  C     0.97612   0.76786   0.26571   0.00000  Uiso   1.00
C3361  C     0.98884   0.76541   0.27276   0.00000  Uiso   1.00
C3362  C     0.99288   0.77277   0.28446   0.00000  Uiso   1.00
N3363  N     0.84513   0.65516   0.15483   0.00000  Uiso   1.00
H3364  H     0.29224   0.52796   0.72785   0.00000  Uiso   1.00
H3365  H     0.30342   0.54720   0.71517   0.00000  Uiso   1.00
H3366  H     0.26305   0.56359   0.70476   0.00000  Uiso   1.00
H3367  H     0.25202   0.54447   0.71739   0.00000  Uiso   1.00
H3368  H     0.27592   0.58332   0.70587   0.00000  Uiso   1.00
H3369  H     0.27981   0.60809   0.70151   0.00000  Uiso   1.00
H3370  H     0.29291   0.62710   0.69114   0.00000  Uiso   1.00
H3371  H     0.32270   0.59770   0.67495   0.00000  Uiso   1.00
H3372  H     0.30983   0.57875   0.68586   0.00000  Uiso   1.00
H3373  H     0.29873   0.63761   0.66999   0.00000  Uiso   1.00
H3374  H     0.31183   0.65737   0.66117   0.00000  Uiso   1.00
H3375  H     0.35019   0.63625   0.67051   0.00000  Uiso   1.00
H3376  H     0.33714   0.61678   0.68018   0.00000  Uiso   1.00
H3377  H     0.78964   0.53838   0.23988   0.00000  Uiso   1.00
H3378  H     0.80143   0.55698   0.22694   0.00000  Uiso   1.00
H3379  H     0.77170   0.55234   0.19367   0.00000  Uiso   1.00
H3380  H     0.76007   0.53399   0.20662   0.00000  Uiso   1.00
H3381  H     0.78144   0.57105   0.18595   0.00000  Uiso   1.00
H3382  H     0.78534   0.58912   0.16847   0.00000  Uiso   1.00
H3383  H     0.79869   0.60856   0.15904   0.00000  Uiso   1.00
H3384  H     0.82865   0.60395   0.19208   0.00000  Uiso   1.00
H3385  H     0.81546   0.58440   0.20133   0.00000  Uiso   1.00
H3386  H     0.80431   0.63232   0.16507   0.00000  Uiso   1.00
H3387  H     0.81726   0.65243   0.15656   0.00000  Uiso   1.00
H3388  H     0.85578   0.63085   0.16390   0.00000  Uiso   1.00
H3389  H     0.84287   0.61065   0.17239   0.00000  Uiso   1.00
H3390  H     0.79287   0.03375   0.73695   0.00000  Uiso   1.00
H3391  H     0.80473   0.05232   0.72401   0.00000  Uiso   1.00
H3392  H     0.76844   0.05712   0.69811   0.00000  Uiso   1.00
H3393  H     0.75685   0.03861   0.71090   0.00000  Uiso   1.00
H3394  H     0.78244   0.06980   0.68577   0.00000  Uiso   1.00
H3395  H     0.78623   0.08793   0.66830   0.00000  Uiso   1.00
H3396  H     0.79946   0.10748   0.65888   0.00000  Uiso   1.00
H3397  H     0.82856   0.10409   0.69281   0.00000  Uiso   1.00
H3398  H     0.81550   0.08445   0.70208   0.00000  Uiso   1.00
H3399  H     0.80447   0.13155   0.66482   0.00000  Uiso   1.00
H3400  H     0.81730   0.15175   0.65633   0.00000  Uiso   1.00
H3401  H     0.85597   0.13081   0.66469   0.00000  Uiso   1.00
H3402  H     0.84318   0.11054   0.67321   0.00000  Uiso   1.00
H3403  H     0.28840   0.03855   0.24029   0.00000  Uiso   1.00
H3404  H     0.30035   0.05716   0.22748   0.00000  Uiso   1.00
H3405  H     0.27150   0.05197   0.19353   0.00000  Uiso   1.00
H3406  H     0.25969   0.03366   0.20636   0.00000  Uiso   1.00
H3407  H     0.28073   0.07118   0.18636   0.00000  Uiso   1.00
H3408  H     0.28470   0.08921   0.16887   0.00000  Uiso   1.00
H3409  H     0.29811   0.10859   0.15942   0.00000  Uiso   1.00
H3410  H     0.32810   0.10388   0.19241   0.00000  Uiso   1.00
H3411  H     0.31484   0.08437   0.20168   0.00000  Uiso   1.00
H3412  H     0.30390   0.13232   0.16527   0.00000  Uiso   1.00
H3413  H     0.31697   0.15228   0.15660   0.00000  Uiso   1.00
H3414  H     0.35535   0.13056   0.16418   0.00000  Uiso   1.00
H3415  H     0.34233   0.11048   0.17278   0.00000  Uiso   1.00
H3416  H     0.54937   0.25312   0.73383   0.00000  Uiso   1.00
H3417  H     0.54942   0.23284   0.75167   0.00000  Uiso   1.00
H3418  H     0.48650   0.21980   0.79148   0.00000  Uiso   1.00
H3419  H     0.51355   0.29456   0.72683   0.00000  Uiso   1.00
H3420  H     0.95056   0.76747   0.25081   0.00000  Uiso   1.00
H3421  H     0.95057   0.74769   0.23249   0.00000  Uiso   1.00
H3422  H     0.01350   0.70682   0.22371   0.00000  Uiso   1.00
H3423  H     0.98650   0.77946   0.29085   0.00000  Uiso   1.00
C3424  C     0.72864   0.53495   0.27643   0.00000  Uiso   1.00
C3425  C     0.71413   0.53572   0.27722   0.00000  Uiso   1.00
C3426  C     0.70780   0.54663   0.28441   0.00000  Uiso   1.00
C3427  C     0.71585   0.55702   0.29062   0.00000  Uiso   1.00
C3428  C     0.73043   0.55600   0.29014   0.00000  Uiso   1.00
C3429  C     0.73676   0.54502   0.28309   0.00000  Uiso   1.00
N3430  N     0.70893   0.56841   0.29732   0.00000  Uiso   1.00
C3431  C     0.71411   0.58080   0.29868   0.00000  Uiso   1.00
C3432  C     0.70617   0.59200   0.30547   0.00000  Uiso   1.00
C3433  C     0.71085   0.60573   0.30429   0.00000  Uiso   1.00
C3434  C     0.70339   0.61660   0.31033   0.00000  Uiso   1.00
C3435  C     0.69114   0.61395   0.31785   0.00000  Uiso   1.00
C3436  C     0.68656   0.60014   0.31915   0.00000  Uiso   1.00
C3437  C     0.69396   0.58927   0.31298   0.00000  Uiso   1.00
C3438  C     0.68314   0.62561   0.32409   0.00000  Uiso   1.00
C3439  C     0.69004   0.63720   0.32968   0.00000  Uiso   1.00
C3440  C     0.68255   0.64845   0.33491   0.00000  Uiso   1.00
C3441  C     0.66797   0.64832   0.33487   0.00000  Uiso   1.00
C3442  C     0.66104   0.63662   0.32960   0.00000  Uiso   1.00
C3443  C     0.66853   0.62542   0.32421   0.00000  Uiso   1.00
C3444  C     0.22602   0.53492   0.77581   0.00000  Uiso   1.00
C3445  C     0.21427   0.54143   0.77022   0.00000  Uiso   1.00
C3446  C     0.20758   0.55200   0.77756   0.00000  Uiso   1.00
C3447  C     0.21252   0.55629   0.79055   0.00000  Uiso   1.00
C3448  C     0.22423   0.54959   0.79626   0.00000  Uiso   1.00
C3449  C     0.23091   0.53900   0.78890   0.00000  Uiso   1.00
N3450  N     0.20532   0.56741   0.79744   0.00000  Uiso   1.00
C3451  C     0.20906   0.57377   0.80874   0.00000  Uiso   1.00
C3452  C     0.20065   0.58528   0.81439   0.00000  Uiso   1.00
C3453  C     0.20518   0.59226   0.82634   0.00000  Uiso   1.00
C3454  C     0.19759   0.60341   0.83168   0.00000  Uiso   1.00
C3455  C     0.18529   0.60781   0.82517   0.00000  Uiso   1.00
C3456  C     0.18068   0.60070   0.81327   0.00000  Uiso   1.00
C3457  C     0.18829   0.58956   0.80793   0.00000  Uiso   1.00
C3458  C     0.17742   0.61990   0.83061   0.00000  Uiso   1.00
C3459  C     0.18447   0.63180   0.83528   0.00000  Uiso   1.00
C3460  C     0.17708   0.64330   0.84012   0.00000  Uiso   1.00
C3461  C     0.16250   0.64315   0.84042   0.00000  Uiso   1.00
C3462  C     0.15545   0.63124   0.83585   0.00000  Uiso   1.00
C3463  C     0.16283   0.61973   0.83097   0.00000  Uiso   1.00
C3464  C     0.22596   0.03483   0.27521   0.00000  Uiso   1.00
C3465  C     0.21242   0.03878   0.27160   0.00000  Uiso   1.00
C3466  C     0.20569   0.04931   0.27896   0.00000  Uiso   1.00
C3467  C     0.21229   0.05601   0.29005   0.00000  Uiso   1.00
C3468  C     0.22592   0.05203   0.29365   0.00000  Uiso   1.00
C3469  C     0.23265   0.04149   0.28629   0.00000  Uiso   1.00
N3470  N     0.20498   0.06706   0.29694   0.00000  Uiso   1.00
C3471  C     0.20850   0.07311   0.30848   0.00000  Uiso   1.00
C3472  C     0.20018   0.08470   0.31410   0.00000  Uiso   1.00
C3473  C     0.20451   0.09136   0.32631   0.00000  Uiso   1.00
C3474  C     0.19699   0.10257   0.33164   0.00000  Uiso   1.00
C3475  C     0.18497   0.10733   0.32487   0.00000  Uiso   1.00
C3476  C     0.18057   0.10055   0.31272   0.00000  Uiso   1.00
C3477  C     0.18810   0.08936   0.30737   0.00000  Uiso   1.00
C3478  C     0.17718   0.11946   0.33032   0.00000  Uiso   1.00
C3479  C     0.18430   0.13118   0.33530   0.00000  Uiso   1.00
C3480  C     0.17698   0.14274   0.34014   0.00000  Uiso   1.00
C3481  C     0.16239   0.14280   0.34014   0.00000  Uiso   1.00
C3482  C     0.15527   0.13104   0.33528   0.00000  Uiso   1.00
C3483  C     0.16258   0.11949   0.33040   0.00000  Uiso   1.00
C3484  C     0.72685   0.03485   0.77574   0.00000  Uiso   1.00
C3485  C     0.71529   0.04149   0.76992   0.00000  Uiso   1.00
C3486  C     0.70851   0.05206   0.77719   0.00000  Uiso   1.00
C3487  C     0.71319   0.05622   0.79032   0.00000  Uiso   1.00
C3488  C     0.72469   0.04936   0.79626   0.00000  Uiso   1.00
C3489  C     0.73145   0.03878   0.78898   0.00000  Uiso   1.00
N3490  N     0.70595   0.06737   0.79713   0.00000  Uiso   1.00
C3491  C     0.70972   0.07381   0.80838   0.00000  Uiso   1.00
C3492  C     0.70129   0.08531   0.81401   0.00000  Uiso   1.00
C3493  C     0.70581   0.09232   0.82595   0.00000  Uiso   1.00
C3494  C     0.69818   0.10344   0.83130   0.00000  Uiso   1.00
C3495  C     0.68585   0.10778   0.82481   0.00000  Uiso   1.00
C3496  C     0.68126   0.10067   0.81292   0.00000  Uiso   1.00
C3497  C     0.68890   0.08955   0.80757   0.00000  Uiso   1.00
C3498  C     0.67792   0.11981   0.83029   0.00000  Uiso   1.00
C3499  C     0.68488   0.13172   0.83507   0.00000  Uiso   1.00
C3500  C     0.67743   0.14314   0.84000   0.00000  Uiso   1.00
C3501  C     0.66286   0.14291   0.84029   0.00000  Uiso   1.00
C3502  C     0.65588   0.13100   0.83559   0.00000  Uiso   1.00
C3503  C     0.66332   0.11957   0.83064   0.00000  Uiso   1.00
C3504  C     0.45986   0.24852   0.26170   0.00000  Uiso   1.00
C3505  C     0.47316   0.25403   0.26149   0.00000  Uiso   1.00
N3506  N     0.48166   0.24546   0.25433   0.00000  Uiso   1.00
C3507  C     0.47316   0.23718   0.24686   0.00000  Uiso   1.00
C3508  C     0.45984   0.23780   0.25232   0.00000  Uiso   1.00
C3509  C     0.47610   0.23215   0.23330   0.00000  Uiso   1.00
C3510  C     0.48883   0.23437   0.22620   0.00000  Uiso   1.00
C3511  C     0.50712   0.22667   0.21471   0.00000  Uiso   1.00
C3512  C     0.47611   0.26815   0.26460   0.00000  Uiso   1.00
C3513  C     0.48885   0.27486   0.26148   0.00000  Uiso   1.00
C3514  C     0.49287   0.28737   0.26739   0.00000  Uiso   1.00
C3515  C     0.04017   0.76270   0.75339   0.00000  Uiso   1.00
C3516  C     0.02683   0.76320   0.74798   0.00000  Uiso   1.00
N3517  N     0.01833   0.75516   0.75572   0.00000  Uiso   1.00
C3518  C     0.02683   0.74681   0.76314   0.00000  Uiso   1.00
C3519  C     0.04017   0.75225   0.76306   0.00000  Uiso   1.00
C3520  C     0.02387   0.73281   0.76673   0.00000  Uiso   1.00
C3521  C     0.01116   0.72597   0.76370   0.00000  Uiso   1.00
C3522  C     0.99288   0.71371   0.77011   0.00000  Uiso   1.00
C3523  C     0.02388   0.76786   0.73429   0.00000  Uiso   1.00
C3524  C     0.01116   0.76541   0.72724   0.00000  Uiso   1.00
C3525  C     0.00712   0.77277   0.71554   0.00000  Uiso   1.00
N3526  N     0.15487   0.65516   0.84517   0.00000  Uiso   1.00
H3527  H     0.70776   0.52796   0.27215   0.00000  Uiso   1.00
H3528  H     0.69658   0.54720   0.28483   0.00000  Uiso   1.00
H3529  H     0.73695   0.56359   0.29524   0.00000  Uiso   1.00
H3530  H     0.74798   0.54447   0.28261   0.00000  Uiso   1.00
H3531  H     0.72408   0.58332   0.29413   0.00000  Uiso   1.00
H3532  H     0.72019   0.60809   0.29849   0.00000  Uiso   1.00
H3533  H     0.70709   0.62710   0.30886   0.00000  Uiso   1.00
H3534  H     0.67730   0.59770   0.32505   0.00000  Uiso   1.00
H3535  H     0.69017   0.57875   0.31414   0.00000  Uiso   1.00
H3536  H     0.70127   0.63761   0.33001   0.00000  Uiso   1.00
H3537  H     0.68817   0.65737   0.33883   0.00000  Uiso   1.00
H3538  H     0.64981   0.63625   0.32949   0.00000  Uiso   1.00
H3539  H     0.66286   0.61678   0.31982   0.00000  Uiso   1.00
H3540  H     0.21036   0.53838   0.76012   0.00000  Uiso   1.00
H3541  H     0.19857   0.55698   0.77306   0.00000  Uiso   1.00
H3542  H     0.22830   0.55234   0.80633   0.00000  Uiso   1.00
H3543  H     0.23993   0.53399   0.79338   0.00000  Uiso   1.00
H3544  H     0.21856   0.57105   0.81405   0.00000  Uiso   1.00
H3545  H     0.21466   0.58912   0.83153   0.00000  Uiso   1.00
H3546  H     0.20131   0.60856   0.84096   0.00000  Uiso   1.00
H3547  H     0.17135   0.60395   0.80792   0.00000  Uiso   1.00
H3548  H     0.18454   0.58440   0.79867   0.00000  Uiso   1.00
H3549  H     0.19569   0.63232   0.83493   0.00000  Uiso   1.00
H3550  H     0.18274   0.65243   0.84344   0.00000  Uiso   1.00
H3551  H     0.14422   0.63085   0.83610   0.00000  Uiso   1.00
H3552  H     0.15713   0.61065   0.82761   0.00000  Uiso   1.00
H3553  H     0.20713   0.03375   0.26305   0.00000  Uiso   1.00
H3554  H     0.19527   0.05232   0.27599   0.00000  Uiso   1.00
H3555  H     0.23156   0.05712   0.30189   0.00000  Uiso   1.00
H3556  H     0.24315   0.03861   0.28910   0.00000  Uiso   1.00
H3557  H     0.21756   0.06980   0.31423   0.00000  Uiso   1.00
H3558  H     0.21377   0.08793   0.33170   0.00000  Uiso   1.00
H3559  H     0.20054   0.10748   0.34112   0.00000  Uiso   1.00
H3560  H     0.17144   0.10409   0.30719   0.00000  Uiso   1.00
H3561  H     0.18450   0.08445   0.29792   0.00000  Uiso   1.00
H3562  H     0.19553   0.13155   0.33518   0.00000  Uiso   1.00
H3563  H     0.18270   0.15175   0.34367   0.00000  Uiso   1.00
H3564  H     0.14403   0.13081   0.33531   0.00000  Uiso   1.00
H3565  H     0.15682   0.11054   0.32679   0.00000  Uiso   1.00
H3566  H     0.71160   0.03855   0.75971   0.00000  Uiso   1.00
H3567  H     0.69965   0.05716   0.77252   0.00000  Uiso   1.00
H3568  H     0.72850   0.05197   0.80647   0.00000  Uiso   1.00
H3569  H     0.74031   0.03366   0.79364   0.00000  Uiso   1.00
H3570  H     0.71927   0.07118   0.81364   0.00000  Uiso   1.00
H3571  H     0.71530   0.08921   0.83113   0.00000  Uiso   1.00
H3572  H     0.70189   0.10859   0.84058   0.00000  Uiso   1.00
H3573  H     0.67190   0.10388   0.80759   0.00000  Uiso   1.00
H3574  H     0.68516   0.08437   0.79832   0.00000  Uiso   1.00
H3575  H     0.69610   0.13232   0.83473   0.00000  Uiso   1.00
H3576  H     0.68303   0.15228   0.84340   0.00000  Uiso   1.00
H3577  H     0.64465   0.13056   0.83582   0.00000  Uiso   1.00
H3578  H     0.65767   0.11048   0.82722   0.00000  Uiso   1.00
H3579  H     0.45063   0.25312   0.26617   0.00000  Uiso   1.00
H3580  H     0.45058   0.23284   0.24833   0.00000  Uiso   1.00
H3581  H     0.51350   0.21980   0.20852   0.00000  Uiso   1.00
H3582  H     0.48645   0.29456   0.27317   0.00000  Uiso   1.00
H3583  H     0.04944   0.76747   0.74919   0.00000  Uiso   1.00
H3584  H     0.04943   0.74769   0.76751   0.00000  Uiso   1.00
H3585  H     0.98650   0.70682   0.77629   0.00000  Uiso   1.00
H3586  H     0.01350   0.77946   0.70915   0.00000  Uiso   1.00
C3587  C     0.27136   0.46505   0.27643   0.00000  Uiso   1.00
C3588  C     0.28587   0.46428   0.27722   0.00000  Uiso   1.00
C3589  C     0.29220   0.45337   0.28441   0.00000  Uiso   1.00
C3590  C     0.28415   0.44298   0.29062   0.00000  Uiso   1.00
C3591  C     0.26957   0.44400   0.29014   0.00000  Uiso   1.00
C3592  C     0.26324   0.45498   0.28309   0.00000  Uiso   1.00
N3593  N     0.29107   0.43159   0.29732   0.00000  Uiso   1.00
C3594  C     0.28589   0.41920   0.29868   0.00000  Uiso   1.00
C3595  C     0.29383   0.40800   0.30547   0.00000  Uiso   1.00
C3596  C     0.28915   0.39427   0.30429   0.00000  Uiso   1.00
C3597  C     0.29661   0.38340   0.31033   0.00000  Uiso   1.00
C3598  C     0.30886   0.38605   0.31785   0.00000  Uiso   1.00
C3599  C     0.31344   0.39986   0.31915   0.00000  Uiso   1.00
C3600  C     0.30604   0.41073   0.31298   0.00000  Uiso   1.00
C3601  C     0.31686   0.37439   0.32409   0.00000  Uiso   1.00
C3602  C     0.30996   0.36280   0.32968   0.00000  Uiso   1.00
C3603  C     0.31745   0.35155   0.33491   0.00000  Uiso   1.00
C3604  C     0.33203   0.35168   0.33487   0.00000  Uiso   1.00
C3605  C     0.33896   0.36338   0.32960   0.00000  Uiso   1.00
C3606  C     0.33147   0.37458   0.32421   0.00000  Uiso   1.00
C3607  C     0.77398   0.46508   0.77581   0.00000  Uiso   1.00
C3608  C     0.78573   0.45857   0.77022   0.00000  Uiso   1.00
C3609  C     0.79242   0.44800   0.77756   0.00000  Uiso   1.00
C3610  C     0.78748   0.44371   0.79055   0.00000  Uiso   1.00
C3611  C     0.77577   0.45041   0.79626   0.00000  Uiso   1.00
C3612  C     0.76909   0.46100   0.78890   0.00000  Uiso   1.00
N3613  N     0.79468   0.43259   0.79744   0.00000  Uiso   1.00
C3614  C     0.79094   0.42623   0.80874   0.00000  Uiso   1.00
C3615  C     0.79935   0.41472   0.81439   0.00000  Uiso   1.00
C3616  C     0.79482   0.40774   0.82634   0.00000  Uiso   1.00
C3617  C     0.80241   0.39659   0.83168   0.00000  Uiso   1.00
C3618  C     0.81471   0.39219   0.82517   0.00000  Uiso   1.00
C3619  C     0.81932   0.39930   0.81327   0.00000  Uiso   1.00
C3620  C     0.81171   0.41044   0.80793   0.00000  Uiso   1.00
C3621  C     0.82258   0.38010   0.83061   0.00000  Uiso   1.00
C3622  C     0.81553   0.36820   0.83528   0.00000  Uiso   1.00
C3623  C     0.82292   0.35670   0.84012   0.00000  Uiso   1.00
C3624  C     0.83750   0.35685   0.84042   0.00000  Uiso   1.00
C3625  C     0.84455   0.36876   0.83585   0.00000  Uiso   1.00
C3626  C     0.83717   0.38027   0.83097   0.00000  Uiso   1.00
C3627  C     0.77404   0.96517   0.27521   0.00000  Uiso   1.00
C3628  C     0.78758   0.96122   0.27160   0.00000  Uiso   1.00
C3629  C     0.79431   0.95069   0.27896   0.00000  Uiso   1.00
C3630  C     0.78771   0.94399   0.29005   0.00000  Uiso   1.00
C3631  C     0.77408   0.94797   0.29365   0.00000  Uiso   1.00
C3632  C     0.76735   0.95851   0.28629   0.00000  Uiso   1.00
N3633  N     0.79502   0.93294   0.29694   0.00000  Uiso   1.00
C3634  C     0.79150   0.92689   0.30848   0.00000  Uiso   1.00
C3635  C     0.79982   0.91530   0.31410   0.00000  Uiso   1.00
C3636  C     0.79549   0.90864   0.32631   0.00000  Uiso   1.00
C3637  C     0.80301   0.89743   0.33164   0.00000  Uiso   1.00
C3638  C     0.81503   0.89267   0.32487   0.00000  Uiso   1.00
C3639  C     0.81943   0.89945   0.31272   0.00000  Uiso   1.00
C3640  C     0.81190   0.91064   0.30737   0.00000  Uiso   1.00
C3641  C     0.82282   0.88054   0.33032   0.00000  Uiso   1.00
C3642  C     0.81570   0.86882   0.33530   0.00000  Uiso   1.00
C3643  C     0.82302   0.85726   0.34014   0.00000  Uiso   1.00
C3644  C     0.83761   0.85720   0.34014   0.00000  Uiso   1.00
C3645  C     0.84473   0.86896   0.33528   0.00000  Uiso   1.00
C3646  C     0.83742   0.88051   0.33040   0.00000  Uiso   1.00
C3647  C     0.27315   0.96515   0.77574   0.00000  Uiso   1.00
C3648  C     0.28471   0.95851   0.76992   0.00000  Uiso   1.00
C3649  C     0.29149   0.94794   0.77719   0.00000  Uiso   1.00
C3650  C     0.28681   0.94378   0.79032   0.00000  Uiso   1.00
C3651  C     0.27531   0.95064   0.79626   0.00000  Uiso   1.00
C3652  C     0.26855   0.96122   0.78898   0.00000  Uiso   1.00
N3653  N     0.29405   0.93263   0.79713   0.00000  Uiso   1.00
C3654  C     0.29028   0.92619   0.80838   0.00000  Uiso   1.00
C3655  C     0.29871   0.91469   0.81401   0.00000  Uiso   1.00
C3656  C     0.29419   0.90768   0.82595   0.00000  Uiso   1.00
C3657  C     0.30182   0.89656   0.83130   0.00000  Uiso   1.00
C3658  C     0.31415   0.89222   0.82481   0.00000  Uiso   1.00
C3659  C     0.31874   0.89933   0.81292   0.00000  Uiso   1.00
C3660  C     0.31110   0.91045   0.80757   0.00000  Uiso   1.00
C3661  C     0.32208   0.88019   0.83029   0.00000  Uiso   1.00
C3662  C     0.31512   0.86828   0.83507   0.00000  Uiso   1.00
C3663  C     0.32257   0.85686   0.84000   0.00000  Uiso   1.00
C3664  C     0.33714   0.85709   0.84029   0.00000  Uiso   1.00
C3665  C     0.34412   0.86900   0.83559   0.00000  Uiso   1.00
C3666  C     0.33668   0.88043   0.83064   0.00000  Uiso   1.00
C3667  C     0.54014   0.75148   0.26170   0.00000  Uiso   1.00
C3668  C     0.52684   0.74597   0.26149   0.00000  Uiso   1.00
N3669  N     0.51834   0.75454   0.25433   0.00000  Uiso   1.00
C3670  C     0.52684   0.76282   0.24686   0.00000  Uiso   1.00
C3671  C     0.54016   0.76220   0.25232   0.00000  Uiso   1.00
C3672  C     0.52390   0.76785   0.23330   0.00000  Uiso   1.00
C3673  C     0.51117   0.76563   0.22620   0.00000  Uiso   1.00
C3674  C     0.49288   0.77333   0.21471   0.00000  Uiso   1.00
C3675  C     0.52389   0.73185   0.26460   0.00000  Uiso   1.00
C3676  C     0.51115   0.72514   0.26148   0.00000  Uiso   1.00
C3677  C     0.50713   0.71263   0.26739   0.00000  Uiso   1.00
C3678  C     0.95983   0.23730   0.75339   0.00000  Uiso   1.00
C3679  C     0.97317   0.23680   0.74798   0.00000  Uiso   1.00
N3680  N     0.98167   0.24484   0.75572   0.00000  Uiso   1.00
C3681  C     0.97317   0.25319   0.76314   0.00000  Uiso   1.00
C3682  C     0.95983   0.24775   0.76306   0.00000  Uiso   1.00
C3683  C     0.97613   0.26719   0.76673   0.00000  Uiso   1.00
C3684  C     0.98884   0.27403   0.76370   0.00000  Uiso   1.00
C3685  C     0.00712   0.28629   0.77011   0.00000  Uiso   1.00
C3686  C     0.97612   0.23214   0.73429   0.00000  Uiso   1.00
C3687  C     0.98884   0.23459   0.72724   0.00000  Uiso   1.00
C3688  C     0.99288   0.22723   0.71554   0.00000  Uiso   1.00
N3689  N     0.84513   0.34484   0.84517   0.00000  Uiso   1.00
H3690  H     0.29224   0.47204   0.27215   0.00000  Uiso   1.00
H3691  H     0.30342   0.45280   0.28483   0.00000  Uiso   1.00
H3692  H     0.26305   0.43641   0.29524   0.00000  Uiso   1.00
H3693  H     0.25202   0.45553   0.28261   0.00000  Uiso   1.00
H3694  H     0.27592   0.41668   0.29413   0.00000  Uiso   1.00
H3695  H     0.27981   0.39191   0.29849   0.00000  Uiso   1.00
H3696  H     0.29291   0.37290   0.30886   0.00000  Uiso   1.00
H3697  H     0.32270   0.40230   0.32505   0.00000  Uiso   1.00
H3698  H     0.30983   0.42125   0.31414   0.00000  Uiso   1.00
H3699  H     0.29873   0.36239   0.33001   0.00000  Uiso   1.00
H3700  H     0.31183   0.34263   0.33883   0.00000  Uiso   1.00
H3701  H     0.35019   0.36375   0.32949   0.00000  Uiso   1.00
H3702  H     0.33714   0.38322   0.31982   0.00000  Uiso   1.00
H3703  H     0.78964   0.46162   0.76012   0.00000  Uiso   1.00
H3704  H     0.80143   0.44302   0.77306   0.00000  Uiso   1.00
H3705  H     0.77170   0.44766   0.80633   0.00000  Uiso   1.00
H3706  H     0.76007   0.46601   0.79338   0.00000  Uiso   1.00
H3707  H     0.78144   0.42895   0.81405   0.00000  Uiso   1.00
H3708  H     0.78534   0.41088   0.83153   0.00000  Uiso   1.00
H3709  H     0.79869   0.39144   0.84096   0.00000  Uiso   1.00
H3710  H     0.82865   0.39605   0.80792   0.00000  Uiso   1.00
H3711  H     0.81546   0.41560   0.79867   0.00000  Uiso   1.00
H3712  H     0.80431   0.36768   0.83493   0.00000  Uiso   1.00
H3713  H     0.81726   0.34757   0.84344   0.00000  Uiso   1.00
H3714  H     0.85578   0.36915   0.83610   0.00000  Uiso   1.00
H3715  H     0.84287   0.38935   0.82761   0.00000  Uiso   1.00
H3716  H     0.79287   0.96625   0.26305   0.00000  Uiso   1.00
H3717  H     0.80473   0.94768   0.27599   0.00000  Uiso   1.00
H3718  H     0.76844   0.94288   0.30189   0.00000  Uiso   1.00
H3719  H     0.75685   0.96139   0.28910   0.00000  Uiso   1.00
H3720  H     0.78244   0.93020   0.31423   0.00000  Uiso   1.00
H3721  H     0.78623   0.91207   0.33170   0.00000  Uiso   1.00
H3722  H     0.79946   0.89252   0.34112   0.00000  Uiso   1.00
H3723  H     0.82856   0.89591   0.30719   0.00000  Uiso   1.00
H3724  H     0.81550   0.91555   0.29792   0.00000  Uiso   1.00
H3725  H     0.80447   0.86845   0.33518   0.00000  Uiso   1.00
H3726  H     0.81730   0.84825   0.34367   0.00000  Uiso   1.00
H3727  H     0.85597   0.86919   0.33531   0.00000  Uiso   1.00
H3728  H     0.84318   0.88946   0.32679   0.00000  Uiso   1.00
H3729  H     0.28840   0.96145   0.75971   0.00000  Uiso   1.00
H3730  H     0.30035   0.94284   0.77252   0.00000  Uiso   1.00
H3731  H     0.27150   0.94803   0.80647   0.00000  Uiso   1.00
H3732  H     0.25969   0.96634   0.79364   0.00000  Uiso   1.00
H3733  H     0.28073   0.92882   0.81364   0.00000  Uiso   1.00
H3734  H     0.28470   0.91079   0.83113   0.00000  Uiso   1.00
H3735  H     0.29811   0.89141   0.84058   0.00000  Uiso   1.00
H3736  H     0.32810   0.89612   0.80759   0.00000  Uiso   1.00
H3737  H     0.31484   0.91563   0.79832   0.00000  Uiso   1.00
H3738  H     0.30390   0.86768   0.83473   0.00000  Uiso   1.00
H3739  H     0.31697   0.84772   0.84340   0.00000  Uiso   1.00
H3740  H     0.35535   0.86944   0.83582   0.00000  Uiso   1.00
H3741  H     0.34233   0.88952   0.82722   0.00000  Uiso   1.00
H3742  H     0.54937   0.74688   0.26617   0.00000  Uiso   1.00
H3743  H     0.54942   0.76716   0.24833   0.00000  Uiso   1.00
H3744  H     0.48650   0.78020   0.20852   0.00000  Uiso   1.00
H3745  H     0.51355   0.70544   0.27317   0.00000  Uiso   1.00
H3746  H     0.95056   0.23253   0.74919   0.00000  Uiso   1.00
H3747  H     0.95057   0.25231   0.76751   0.00000  Uiso   1.00
H3748  H     0.01350   0.29318   0.77629   0.00000  Uiso   1.00
H3749  H     0.98650   0.22054   0.70915   0.00000  Uiso   1.00
C3750  C     0.72864   0.46505   0.72357   0.00000  Uiso   1.00
C3751  C     0.71413   0.46428   0.72278   0.00000  Uiso   1.00
C3752  C     0.70780   0.45337   0.71559   0.00000  Uiso   1.00
C3753  C     0.71585   0.44298   0.70938   0.00000  Uiso   1.00
C3754  C     0.73043   0.44400   0.70986   0.00000  Uiso   1.00
C3755  C     0.73676   0.45498   0.71691   0.00000  Uiso   1.00
N3756  N     0.70893   0.43159   0.70268   0.00000  Uiso   1.00
C3757  C     0.71411   0.41920   0.70132   0.00000  Uiso   1.00
C3758  C     0.70617   0.40800   0.69453   0.00000  Uiso   1.00
C3759  C     0.71085   0.39427   0.69571   0.00000  Uiso   1.00
C3760  C     0.70339   0.38340   0.68967   0.00000  Uiso   1.00
C3761  C     0.69114   0.38605   0.68215   0.00000  Uiso   1.00
C3762  C     0.68656   0.39986   0.68085   0.00000  Uiso   1.00
C3763  C     0.69396   0.41073   0.68702   0.00000  Uiso   1.00
C3764  C     0.68314   0.37439   0.67591   0.00000  Uiso   1.00
C3765  C     0.69004   0.36280   0.67032   0.00000  Uiso   1.00
C3766  C     0.68255   0.35155   0.66509   0.00000  Uiso   1.00
C3767  C     0.66797   0.35168   0.66513   0.00000  Uiso   1.00
C3768  C     0.66104   0.36338   0.67040   0.00000  Uiso   1.00
C3769  C     0.66853   0.37458   0.67579   0.00000  Uiso   1.00
C3770  C     0.22602   0.46508   0.22419   0.00000  Uiso   1.00
C3771  C     0.21427   0.45857   0.22978   0.00000  Uiso   1.00
C3772  C     0.20758   0.44800   0.22244   0.00000  Uiso   1.00
C3773  C     0.21252   0.44371   0.20945   0.00000  Uiso   1.00
C3774  C     0.22423   0.45041   0.20374   0.00000  Uiso   1.00
C3775  C     0.23091   0.46100   0.21110   0.00000  Uiso   1.00
N3776  N     0.20532   0.43259   0.20256   0.00000  Uiso   1.00
C3777  C     0.20906   0.42623   0.19126   0.00000  Uiso   1.00
C3778  C     0.20065   0.41472   0.18561   0.00000  Uiso   1.00
C3779  C     0.20518   0.40774   0.17366   0.00000  Uiso   1.00
C3780  C     0.19759   0.39659   0.16832   0.00000  Uiso   1.00
C3781  C     0.18529   0.39219   0.17483   0.00000  Uiso   1.00
C3782  C     0.18068   0.39930   0.18673   0.00000  Uiso   1.00
C3783  C     0.18829   0.41044   0.19207   0.00000  Uiso   1.00
C3784  C     0.17742   0.38010   0.16939   0.00000  Uiso   1.00
C3785  C     0.18447   0.36820   0.16472   0.00000  Uiso   1.00
C3786  C     0.17708   0.35670   0.15988   0.00000  Uiso   1.00
C3787  C     0.16250   0.35685   0.15958   0.00000  Uiso   1.00
C3788  C     0.15545   0.36876   0.16415   0.00000  Uiso   1.00
C3789  C     0.16283   0.38027   0.16903   0.00000  Uiso   1.00
C3790  C     0.22596   0.96517   0.72479   0.00000  Uiso   1.00
C3791  C     0.21242   0.96122   0.72840   0.00000  Uiso   1.00
C3792  C     0.20569   0.95069   0.72104   0.00000  Uiso   1.00
C3793  C     0.21229   0.94399   0.70995   0.00000  Uiso   1.00
C3794  C     0.22592   0.94797   0.70635   0.00000  Uiso   1.00
C3795  C     0.23265   0.95851   0.71371   0.00000  Uiso   1.00
N3796  N     0.20498   0.93294   0.70306   0.00000  Uiso   1.00
C3797  C     0.20850   0.92689   0.69152   0.00000  Uiso   1.00
C3798  C     0.20018   0.91530   0.68590   0.00000  Uiso   1.00
C3799  C     0.20451   0.90864   0.67369   0.00000  Uiso   1.00
C3800  C     0.19699   0.89743   0.66836   0.00000  Uiso   1.00
C3801  C     0.18497   0.89267   0.67513   0.00000  Uiso   1.00
C3802  C     0.18057   0.89945   0.68728   0.00000  Uiso   1.00
C3803  C     0.18810   0.91064   0.69263   0.00000  Uiso   1.00
C3804  C     0.17718   0.88054   0.66968   0.00000  Uiso   1.00
C3805  C     0.18430   0.86882   0.66470   0.00000  Uiso   1.00
C3806  C     0.17698   0.85726   0.65986   0.00000  Uiso   1.00
C3807  C     0.16239   0.85720   0.65986   0.00000  Uiso   1.00
C3808  C     0.15527   0.86896   0.66472   0.00000  Uiso   1.00
C3809  C     0.16258   0.88051   0.66960   0.00000  Uiso   1.00
C3810  C     0.72685   0.96515   0.22426   0.00000  Uiso   1.00
C3811  C     0.71529   0.95851   0.23008   0.00000  Uiso   1.00
C3812  C     0.70851   0.94794   0.22281   0.00000  Uiso   1.00
C3813  C     0.71319   0.94378   0.20968   0.00000  Uiso   1.00
C3814  C     0.72469   0.95064   0.20374   0.00000  Uiso   1.00
C3815  C     0.73145   0.96122   0.21102   0.00000  Uiso   1.00
N3816  N     0.70595   0.93263   0.20287   0.00000  Uiso   1.00
C3817  C     0.70972   0.92619   0.19162   0.00000  Uiso   1.00
C3818  C     0.70129   0.91469   0.18599   0.00000  Uiso   1.00
C3819  C     0.70581   0.90768   0.17405   0.00000  Uiso   1.00
C3820  C     0.69818   0.89656   0.16870   0.00000  Uiso   1.00
C3821  C     0.68585   0.89222   0.17519   0.00000  Uiso   1.00
C3822  C     0.68126   0.89933   0.18708   0.00000  Uiso   1.00
C3823  C     0.68890   0.91045   0.19243   0.00000  Uiso   1.00
C3824  C     0.67792   0.88019   0.16971   0.00000  Uiso   1.00
C3825  C     0.68488   0.86828   0.16493   0.00000  Uiso   1.00
C3826  C     0.67743   0.85686   0.16000   0.00000  Uiso   1.00
C3827  C     0.66286   0.85709   0.15971   0.00000  Uiso   1.00
C3828  C     0.65588   0.86900   0.16441   0.00000  Uiso   1.00
C3829  C     0.66332   0.88043   0.16936   0.00000  Uiso   1.00
C3830  C     0.45986   0.75148   0.73830   0.00000  Uiso   1.00
C3831  C     0.47316   0.74597   0.73851   0.00000  Uiso   1.00
N3832  N     0.48166   0.75454   0.74567   0.00000  Uiso   1.00
C3833  C     0.47316   0.76282   0.75314   0.00000  Uiso   1.00
C3834  C     0.45984   0.76220   0.74768   0.00000  Uiso   1.00
C3835  C     0.47610   0.76785   0.76670   0.00000  Uiso   1.00
C3836  C     0.48883   0.76563   0.77380   0.00000  Uiso   1.00
C3837  C     0.50712   0.77333   0.78529   0.00000  Uiso   1.00
C3838  C     0.47611   0.73185   0.73540   0.00000  Uiso   1.00
C3839  C     0.48885   0.72514   0.73852   0.00000  Uiso   1.00
C3840  C     0.49287   0.71263   0.73261   0.00000  Uiso   1.00
C3841  C     0.04017   0.23730   0.24661   0.00000  Uiso   1.00
C3842  C     0.02683   0.23680   0.25202   0.00000  Uiso   1.00
N3843  N     0.01833   0.24484   0.24428   0.00000  Uiso   1.00
C3844  C     0.02683   0.25319   0.23686   0.00000  Uiso   1.00
C3845  C     0.04017   0.24775   0.23694   0.00000  Uiso   1.00
C3846  C     0.02387   0.26719   0.23327   0.00000  Uiso   1.00
C3847  C     0.01116   0.27403   0.23630   0.00000  Uiso   1.00
C3848  C     0.99288   0.28629   0.22989   0.00000  Uiso   1.00
C3849  C     0.02388   0.23214   0.26571   0.00000  Uiso   1.00
C3850  C     0.01116   0.23459   0.27276   0.00000  Uiso   1.00
C3851  C     0.00712   0.22723   0.28446   0.00000  Uiso   1.00
N3852  N     0.15487   0.34484   0.15483   0.00000  Uiso   1.00
H3853  H     0.70776   0.47204   0.72785   0.00000  Uiso   1.00
H3854  H     0.69658   0.45280   0.71517   0.00000  Uiso   1.00
H3855  H     0.73695   0.43641   0.70476   0.00000  Uiso   1.00
H3856  H     0.74798   0.45553   0.71739   0.00000  Uiso   1.00
H3857  H     0.72408   0.41668   0.70587   0.00000  Uiso   1.00
H3858  H     0.72019   0.39191   0.70151   0.00000  Uiso   1.00
H3859  H     0.70709   0.37290   0.69114   0.00000  Uiso   1.00
H3860  H     0.67730   0.40230   0.67495   0.00000  Uiso   1.00
H3861  H     0.69017   0.42125   0.68586   0.00000  Uiso   1.00
H3862  H     0.70127   0.36239   0.66999   0.00000  Uiso   1.00
H3863  H     0.68817   0.34263   0.66117   0.00000  Uiso   1.00
H3864  H     0.64981   0.36375   0.67051   0.00000  Uiso   1.00
H3865  H     0.66286   0.38322   0.68018   0.00000  Uiso   1.00
H3866  H     0.21036   0.46162   0.23988   0.00000  Uiso   1.00
H3867  H     0.19857   0.44302   0.22694   0.00000  Uiso   1.00
H3868  H     0.22830   0.44766   0.19367   0.00000  Uiso   1.00
H3869  H     0.23993   0.46601   0.20662   0.00000  Uiso   1.00
H3870  H     0.21856   0.42895   0.18595   0.00000  Uiso   1.00
H3871  H     0.21466   0.41088   0.16847   0.00000  Uiso   1.00
H3872  H     0.20131   0.39144   0.15904   0.00000  Uiso   1.00
H3873  H     0.17135   0.39605   0.19208   0.00000  Uiso   1.00
H3874  H     0.18454   0.41560   0.20133   0.00000  Uiso   1.00
H3875  H     0.19569   0.36768   0.16507   0.00000  Uiso   1.00
H3876  H     0.18274   0.34757   0.15656   0.00000  Uiso   1.00
H3877  H     0.14422   0.36915   0.16390   0.00000  Uiso   1.00
H3878  H     0.15713   0.38935   0.17239   0.00000  Uiso   1.00
H3879  H     0.20713   0.96625   0.73695   0.00000  Uiso   1.00
H3880  H     0.19527   0.94768   0.72401   0.00000  Uiso   1.00
H3881  H     0.23156   0.94288   0.69811   0.00000  Uiso   1.00
H3882  H     0.24315   0.96139   0.71090   0.00000  Uiso   1.00
H3883  H     0.21756   0.93020   0.68577   0.00000  Uiso   1.00
H3884  H     0.21377   0.91207   0.66830   0.00000  Uiso   1.00
H3885  H     0.20054   0.89252   0.65888   0.00000  Uiso   1.00
H3886  H     0.17144   0.89591   0.69281   0.00000  Uiso   1.00
H3887  H     0.18450   0.91555   0.70208   0.00000  Uiso   1.00
H3888  H     0.19553   0.86845   0.66482   0.00000  Uiso   1.00
H3889  H     0.18270   0.84825   0.65633   0.00000  Uiso   1.00
H3890  H     0.14403   0.86919   0.66469   0.00000  Uiso   1.00
H3891  H     0.15682   0.88946   0.67321   0.00000  Uiso   1.00
H3892  H     0.71160   0.96145   0.24029   0.00000  Uiso   1.00
H3893  H     0.69965   0.94284   0.22748   0.00000  Uiso   1.00
H3894  H     0.72850   0.94803   0.19353   0.00000  Uiso   1.00
H3895  H     0.74031   0.96634   0.20636   0.00000  Uiso   1.00
H3896  H     0.71927   0.92882   0.18636   0.00000  Uiso   1.00
H3897  H     0.71530   0.91079   0.16887   0.00000  Uiso   1.00
H3898  H     0.70189   0.89141   0.15942   0.00000  Uiso   1.00
H3899  H     0.67190   0.89612   0.19241   0.00000  Uiso   1.00
H3900  H     0.68516   0.91563   0.20168   0.00000  Uiso   1.00
H3901  H     0.69610   0.86768   0.16527   0.00000  Uiso   1.00
H3902  H     0.68303   0.84772   0.15660   0.00000  Uiso   1.00
H3903  H     0.64465   0.86944   0.16418   0.00000  Uiso   1.00
H3904  H     0.65767   0.88952   0.17278   0.00000  Uiso   1.00
H3905  H     0.45063   0.74688   0.73383   0.00000  Uiso   1.00
H3906  H     0.45058   0.76716   0.75167   0.00000  Uiso   1.00
H3907  H     0.51350   0.78020   0.79148   0.00000  Uiso   1.00
H3908  H     0.48645   0.70544   0.72683   0.00000  Uiso   1.00
H3909  H     0.04944   0.23253   0.25081   0.00000  Uiso   1.00
H3910  H     0.04943   0.25231   0.23249   0.00000  Uiso   1.00
H3911  H     0.98650   0.29318   0.22371   0.00000  Uiso   1.00
H3912  H     0.01350   0.22054   0.29085   0.00000  Uiso   1.00
N3913  N     0.75909   0.23162   0.50000   0.00000  Uiso   1.00
N3914  N     0.73142   0.25578   0.50000   0.00000  Uiso   1.00
N3915  N     0.24091   0.76838   0.50000   0.00000  Uiso   1.00
N3916  N     0.26858   0.74422   0.50000   0.00000  Uiso   1.00
N3917  N     0.24091   0.23162   0.50000   0.00000  Uiso   1.00
N3918  N     0.26858   0.25578   0.50000   0.00000  Uiso   1.00
N3919  N     0.75909   0.76838   0.50000   0.00000  Uiso   1.00
N3920  N     0.73142   0.74422   0.50000   0.00000  Uiso   1.00
N3921  N     0.50000   0.75909   0.23162   0.00000  Uiso   1.00
N3922  N     0.50000   0.73142   0.25578   0.00000  Uiso   1.00
N3923  N     0.50000   0.24091   0.76838   0.00000  Uiso   1.00
N3924  N     0.50000   0.26858   0.74422   0.00000  Uiso   1.00
N3925  N     0.50000   0.24091   0.23162   0.00000  Uiso   1.00
N3926  N     0.50000   0.26858   0.25578   0.00000  Uiso   1.00
N3927  N     0.50000   0.75909   0.76838   0.00000  Uiso   1.00
N3928  N     0.50000   0.73142   0.74422   0.00000  Uiso   1.00
N3929  N     0.23162   0.50000   0.75909   0.00000  Uiso   1.00
N3930  N     0.25578   0.50000   0.73142   0.00000  Uiso   1.00
N3931  N     0.76838   0.50000   0.24091   0.00000  Uiso   1.00
N3932  N     0.74422   0.50000   0.26858   0.00000  Uiso   1.00
N3933  N     0.23162   0.50000   0.24091   0.00000  Uiso   1.00
N3934  N     0.25578   0.50000   0.26858   0.00000  Uiso   1.00
N3935  N     0.76838   0.50000   0.75909   0.00000  Uiso   1.00
N3936  N     0.74422   0.50000   0.73142   0.00000  Uiso   1.00
N3937  N     0.26795   0.75777   0.00000   0.00000  Uiso   1.00
N3938  N     0.24099   0.73284   0.00000   0.00000  Uiso   1.00
N3939  N     0.73205   0.24223   0.00000   0.00000  Uiso   1.00
N3940  N     0.75901   0.26716   0.00000   0.00000  Uiso   1.00
N3941  N     0.73205   0.75777   0.00000   0.00000  Uiso   1.00
N3942  N     0.75901   0.73284   0.00000   0.00000  Uiso   1.00
N3943  N     0.26795   0.24223   0.00000   0.00000  Uiso   1.00
N3944  N     0.24099   0.26716   0.00000   0.00000  Uiso   1.00
N3945  N     0.00000   0.26795   0.75777   0.00000  Uiso   1.00
N3946  N     0.00000   0.24099   0.73284   0.00000  Uiso   1.00
N3947  N     0.00000   0.73205   0.24223   0.00000  Uiso   1.00
N3948  N     0.00000   0.75901   0.26716   0.00000  Uiso   1.00
N3949  N     0.00000   0.73205   0.75777   0.00000  Uiso   1.00
N3950  N     0.00000   0.75901   0.73284   0.00000  Uiso   1.00
N3951  N     0.00000   0.26795   0.24223   0.00000  Uiso   1.00
N3952  N     0.00000   0.24099   0.26716   0.00000  Uiso   1.00
N3953  N     0.75777   0.00000   0.26795   0.00000  Uiso   1.00
N3954  N     0.73284   0.00000   0.24099   0.00000  Uiso   1.00
N3955  N     0.24223   0.00000   0.73205   0.00000  Uiso   1.00
N3956  N     0.26716   0.00000   0.75901   0.00000  Uiso   1.00
N3957  N     0.75777   0.00000   0.73205   0.00000  Uiso   1.00
N3958  N     0.73284   0.00000   0.75901   0.00000  Uiso   1.00
N3959  N     0.24223   0.00000   0.26795   0.00000  Uiso   1.00
N3960  N     0.26716   0.00000   0.24099   0.00000  Uiso   1.00
N3961  N     0.33978   0.66022   0.33978   0.00000  Uiso   1.00
N3962  N     0.66022   0.33978   0.33978   0.00000  Uiso   1.00
N3963  N     0.66022   0.66022   0.66022   0.00000  Uiso   1.00
N3964  N     0.33978   0.33978   0.66022   0.00000  Uiso   1.00
N3965  N     0.66022   0.33978   0.66022   0.00000  Uiso   1.00
N3966  N     0.33978   0.66022   0.66022   0.00000  Uiso   1.00
N3967  N     0.33978   0.33978   0.33978   0.00000  Uiso   1.00
N3968  N     0.66022   0.66022   0.33978   0.00000  Uiso   1.00
Cu3969 Cu    0.24967   0.24950   0.00000   0.00000  Uiso   1.00
Cu3970 Cu    0.75033   0.75050   0.00000   0.00000  Uiso   1.00
Cu3971 Cu    0.75033   0.24950   0.00000   0.00000  Uiso   1.00
Cu3972 Cu    0.24967   0.75050   0.00000   0.00000  Uiso   1.00
Cu3973 Cu    0.00000   0.24967   0.24950   0.00000  Uiso   1.00
Cu3974 Cu    0.00000   0.75033   0.75050   0.00000  Uiso   1.00
Cu3975 Cu    0.00000   0.75033   0.24950   0.00000  Uiso   1.00
Cu3976 Cu    0.00000   0.24967   0.75050   0.00000  Uiso   1.00
Cu3977 Cu    0.24950   0.00000   0.24967   0.00000  Uiso   1.00
Cu3978 Cu    0.75050   0.00000   0.75033   0.00000  Uiso   1.00
Cu3979 Cu    0.24950   0.00000   0.75033   0.00000  Uiso   1.00
Cu3980 Cu    0.75050   0.00000   0.24967   0.00000  Uiso   1.00
Cu3981 Cu    0.50000   0.74988   0.75100   0.00000  Uiso   1.00
Cu3982 Cu    0.50000   0.25012   0.75100   0.00000  Uiso   1.00
Cu3983 Cu    0.50000   0.74988   0.24900   0.00000  Uiso   1.00
Cu3984 Cu    0.50000   0.25012   0.24900   0.00000  Uiso   1.00
Cu3985 Cu    0.75100   0.50000   0.74988   0.00000  Uiso   1.00
Cu3986 Cu    0.75100   0.50000   0.25012   0.00000  Uiso   1.00
Cu3987 Cu    0.24900   0.50000   0.74988   0.00000  Uiso   1.00
Cu3988 Cu    0.24900   0.50000   0.25012   0.00000  Uiso   1.00
Cu3989 Cu    0.74988   0.75100   0.50000   0.00000  Uiso   1.00
Cu3990 Cu    0.25012   0.75100   0.50000   0.00000  Uiso   1.00
Cu3991 Cu    0.74988   0.24900   0.50000   0.00000  Uiso   1.00
Cu3992 Cu    0.25012   0.24900   0.50000   0.00000  Uiso   1.00
loop_
_geom_bond_atom_site_label_1
_geom_bond_atom_site_label_2
_geom_bond_distance
_geom_bond_site_symmetry_2
_ccdc_geom_bond_type
C1     C2      1.386   .     S
C1     C6      1.386   .     D
C1     C1067   1.465   .     S
C2     C3      1.383   .     D
C2     H104    1.071   .     S
C3     C4      1.385   .     S
C3     H105    1.071   .     S
C4     C5      1.393   .     D
C4     N7      1.421   .     S
C5     C6      1.381   .     S
C5     H106    1.070   .     S
C6     H107    1.071   .     S
N7     C8      1.286   .     D
C8     C9      1.459   .     S
C8     H108    1.071   .     S
C9     C10     1.386   .     D
C9     C14     1.390   .     S
C10    C11     1.381   .     S
C10    H109    1.071   .     S
C11    C12     1.392   .     D
C11    H110    1.070   .     S
C12    C13     1.391   .     S
C12    C15     1.472   .     S
C13    C14     1.383   .     D
C13    H111    1.071   .     S
C14    H112    1.071   .     S
C15    C16     1.391   .     D
C15    C20     1.392   .     S
C16    C17     1.380   .     S
C16    H113    1.071   .     S
C17    C18     1.389   .     D
C17    H114    1.071   .     S
C18    C19     1.389   .     S
C18    N3961   1.431   .     S
C19    C20     1.382   .     D
C19    H115    1.070   .     S
C20    H116    1.069   .     S
C21    C22     1.386   .     D
C21    C26     1.386   .     S
C21    C738    1.469   .     S
C22    C23     1.381   .     S
C22    H117    1.072   .     S
C23    C24     1.385   .     D
C23    H118    1.070   .     S
C24    C25     1.395   .     S
C24    N27     1.422   .     S
C25    C26     1.383   .     D
C25    H119    1.067   .     S
C26    H120    1.071   .     S
N27    C28     1.285   .     D
C28    C29     1.460   .     S
C28    H121    1.068   .     S
C29    C30     1.387   .     D
C29    C34     1.389   .     S
C30    C31     1.382   .     S
C30    H122    1.072   .     S
C31    C32     1.390   .     D
C31    H123    1.071   .     S
C32    C33     1.391   .     S
C32    C35     1.468   .     S
C33    C34     1.382   .     D
C33    H124    1.070   .     S
C34    H125    1.071   .     S
C35    C36     1.390   .     D
C35    C40     1.390   .     S
C36    C37     1.381   .     S
C36    H126    1.070   .     S
C37    C38     1.389   .     D
C37    H127    1.071   .     S
C38    C39     1.388   .     S
C38    N103    1.429   .     S
C39    C40     1.383   .     D
C39    H128    1.071   .     S
C40    H129    1.070   .     S
C41    C42     1.387   .     S
C41    C46     1.386   .     D
C41    C912    1.469   .     S
C42    C43     1.381   .     D
C42    H130    1.071   .     S
C43    C44     1.385   .     S
C43    H131    1.071   .     S
C44    C45     1.395   .     D
C44    N47     1.422   .     S
C45    C46     1.382   .     S
C45    H132    1.067   .     S
C46    H133    1.071   .     S
N47    C48     1.286   .     D
C48    C49     1.461   .     S
C48    H134    1.070   .     S
C49    C50     1.387   .     S
C49    C54     1.390   .     D
C50    C51     1.382   .     D
C50    H135    1.072   .     S
C51    C52     1.390   .     S
C51    H136    1.072   .     S
C52    C53     1.390   .     D
C52    C55     1.468   .     S
C53    C54     1.382   .     S
C53    H137    1.071   .     S
C54    H138    1.071   .     S
C55    C56     1.390   .     S
C55    C60     1.391   .     D
C56    C57     1.382   .     D
C56    H139    1.070   .     S
C57    C58     1.390   .     S
C57    H140    1.071   .     S
C58    C59     1.389   .     D
C58    N918    1.428   .     S
C59    C60     1.382   .     S
C59    H141    1.071   .     S
C60    H142    1.070   .     S
C61    C62     1.385   .     S
C61    C66     1.386   .     D
C61    C1241   1.469   .     S
C62    C63     1.382   .     D
C62    H143    1.071   .     S
C63    C64     1.386   .     S
C63    H144    1.070   .     S
C64    C65     1.395   .     D
C64    N67     1.423   .     S
C65    C66     1.382   .     S
C65    H145    1.067   .     S
C66    H146    1.071   .     S
N67    C68     1.286   .     D
C68    C69     1.460   .     S
C68    H147    1.068   .     S
C69    C70     1.387   .     S
C69    C74     1.390   .     D
C70    C71     1.382   .     D
C70    H148    1.072   .     S
C71    C72     1.390   .     S
C71    H149    1.071   .     S
C72    C73     1.390   .     D
C72    C75     1.468   .     S
C73    C74     1.382   .     S
C73    H150    1.071   .     S
C74    H151    1.071   .     S
C75    C76     1.391   .     S
C75    C80     1.391   .     D
C76    C77     1.381   .     D
C76    H152    1.071   .     S
C77    C78     1.388   .     S
C77    H153    1.071   .     S
C78    C79     1.389   .     D
C78    N1896   1.428   .     S
C79    C80     1.382   .     S
C79    H154    1.071   .     S
C80    H155    1.070   .     S
C81    C82     1.371   .     S
C81    C85     1.357   .     D
C81    H156    1.071   .     S
C82    N83     1.337   .     S
C82    C89     1.405   .     D
N83    C84     1.336   .     D
N83    Cu3987  1.872   .     S
C84    C85     1.372   .     S
C84    C86     1.406   .     S
C85    H157    1.070   .     S
C86    C87     1.404   .     D
C86    C1325   1.469   .     S
C87    C2370   1.373   .     S
C87    N3929   1.337   .     S
C88    H158    1.070   .     S
C88    C2369   1.373   .     S
C88    C2370   1.356   .     D
C89    C90     1.403   .     S
C89    C1468   1.465   .     S
C90    C91     1.372   .     S
C90    N3930   1.334   .     D
C91    H159    1.070   .     S
C91    C2373   1.358   .     D
C92    C93     1.372   .     S
C92    C96     1.356   .     D
C92    H160    1.071   .     S
C93    N94     1.336   .     D
C93    C100    1.406   .     S
N94    C95     1.337   .     S
N94    Cu3980  1.873   .     S
C95    C96     1.372   .     S
C95    C97     1.405   .     D
C96    H161    1.071   .     S
C97    C98     1.405   .     S
C97    C1834   1.469   .     S
C98    C2381   1.373   .     S
C98    N3953   1.336   .     D
C99    H162    1.071   .     S
C99    C2380   1.373   .     S
C99    C2381   1.356   1_565 D
C100   C101    1.405   .     D
C100   C1691   1.469   .     S
C101   C102    1.372   .     S
C101   N3954   1.336   .     S
C102   H163    1.070   .     S
C102   C2384   1.356   1_545 D
N103   C1851   1.428   .     S
N103   C893    1.428   .     S
C164   C165    1.386   .     S
C164   C169    1.386   .     D
C164   C741    1.465   .     S
C165   C166    1.383   .     D
C165   H267    1.071   .     S
C166   C167    1.385   .     S
C166   H268    1.071   .     S
C167   C168    1.393   .     D
C167   N170    1.421   .     S
C168   C169    1.381   .     S
C168   H269    1.070   .     S
C169   H270    1.071   .     S
N170   C171    1.286   .     D
C171   C172    1.459   .     S
C171   H271    1.071   .     S
C172   C173    1.386   .     S
C172   C177    1.390   .     D
C173   C174    1.381   .     D
C173   H272    1.071   .     S
C174   C175    1.392   .     S
C174   H273    1.070   .     S
C175   C176    1.391   .     D
C175   C178    1.472   .     S
C176   C177    1.383   .     S
C176   H274    1.071   .     S
C177   H275    1.071   .     S
C178   C179    1.391   .     S
C178   C183    1.392   .     D
C179   C180    1.380   .     D
C179   H276    1.071   .     S
C180   C181    1.389   .     S
C180   H277    1.071   .     S
C181   C182    1.389   .     D
C181   N3962   1.431   .     S
C182   C183    1.382   .     S
C182   H278    1.070   .     S
C183   H279    1.069   .     S
C184   C185    1.386   .     D
C184   C189    1.386   .     S
C184   C1064   1.469   .     S
C185   C186    1.381   .     S
C185   H280    1.072   .     S
C186   C187    1.385   .     D
C186   H281    1.070   .     S
C187   C188    1.395   .     S
C187   N190    1.422   .     S
C188   C189    1.383   .     D
C188   H282    1.067   .     S
C189   H283    1.071   .     S
N190   C191    1.285   .     D
C191   C192    1.460   .     S
C191   H284    1.068   .     S
C192   C193    1.387   .     D
C192   C197    1.389   .     S
C193   C194    1.382   .     S
C193   H285    1.072   .     S
C194   C195    1.390   .     D
C194   H286    1.071   .     S
C195   C196    1.391   .     S
C195   C198    1.468   .     S
C196   C197    1.382   .     D
C196   H287    1.070   .     S
C197   H288    1.071   .     S
C198   C199    1.390   .     D
C198   C203    1.390   .     S
C199   C200    1.381   .     S
C199   H289    1.070   .     S
C200   C201    1.389   .     D
C200   H290    1.071   .     S
C201   C202    1.388   .     S
C201   N266    1.429   .     S
C202   C203    1.383   .     D
C202   H291    1.071   .     S
C203   H292    1.070   .     S
C204   C205    1.387   .     S
C204   C209    1.386   .     D
C204   C1238   1.469   .     S
C205   C206    1.381   .     D
C205   H293    1.071   .     S
C206   C207    1.385   .     S
C206   H294    1.071   .     S
C207   C208    1.395   .     D
C207   N210    1.422   .     S
C208   C209    1.382   .     S
C208   H295    1.067   .     S
C209   H296    1.071   .     S
N210   C211    1.286   .     D
C211   C212    1.461   .     S
C211   H297    1.070   .     S
C212   C213    1.387   .     S
C212   C217    1.390   .     D
C213   C214    1.382   .     D
C213   H298    1.072   .     S
C214   C215    1.390   .     S
C214   H299    1.072   .     S
C215   C216    1.390   .     D
C215   C218    1.468   .     S
C216   C217    1.382   .     S
C216   H300    1.071   .     S
C217   H301    1.071   .     S
C218   C219    1.390   .     S
C218   C223    1.391   .     D
C219   C220    1.382   .     D
C219   H302    1.070   .     S
C220   C221    1.390   .     S
C220   H303    1.071   .     S
C221   C222    1.389   .     D
C221   N1244   1.428   .     S
C222   C223    1.382   .     S
C222   H304    1.071   .     S
C223   H305    1.070   .     S
C224   C225    1.385   .     S
C224   C229    1.386   .     D
C224   C915    1.469   .     S
C225   C226    1.382   .     D
C225   H306    1.071   .     S
C226   C227    1.386   .     S
C226   H307    1.070   .     S
C227   C228    1.395   .     D
C227   N230    1.423   .     S
C228   C229    1.382   .     S
C228   H308    1.067   .     S
C229   H309    1.071   .     S
N230   C231    1.286   .     D
C231   C232    1.460   .     S
C231   H310    1.068   .     S
C232   C233    1.387   .     S
C232   C237    1.390   .     D
C233   C234    1.382   .     D
C233   H311    1.072   .     S
C234   C235    1.390   .     S
C234   H312    1.071   .     S
C235   C236    1.390   .     D
C235   C238    1.468   .     S
C236   C237    1.382   .     S
C236   H313    1.071   .     S
C237   H314    1.071   .     S
C238   C239    1.391   .     S
C238   C243    1.391   .     D
C239   C240    1.381   .     D
C239   H315    1.071   .     S
C240   C241    1.388   .     S
C240   H316    1.071   .     S
C241   C242    1.389   .     D
C241   N1407   1.428   .     S
C242   C243    1.382   .     S
C242   H317    1.071   .     S
C243   H318    1.070   .     S
C244   C245    1.371   .     S
C244   C248    1.357   .     D
C244   H319    1.071   .     S
C245   N246    1.337   .     D
C245   C252    1.405   .     S
N246   C247    1.336   .     S
N246   Cu3985  1.872   .     S
C247   C248    1.372   .     S
C247   C249    1.406   .     D
C248   H320    1.070   .     S
C249   C250    1.404   .     S
C249   C1814   1.469   .     S
C250   C2533   1.373   .     S
C250   N3935   1.337   .     D
C251   H321    1.070   .     S
C251   C2532   1.373   .     S
C251   C2533   1.356   .     D
C252   C253    1.403   .     D
C252   C1631   1.465   .     S
C253   C254    1.372   .     S
C253   N3936   1.334   .     S
C254   H322    1.070   .     S
C254   C2536   1.358   .     D
C255   C256    1.372   .     S
C255   C259    1.356   .     D
C255   H323    1.071   .     S
C256   N257    1.336   .     S
C256   C263    1.406   .     D
N257   C258    1.337   .     D
N257   Cu3977  1.873   1_565 S
C258   C259    1.372   .     S
C258   C260    1.405   .     S
C259   H324    1.071   .     S
C260   C261    1.405   .     D
C260   C1345   1.469   .     S
C261   C2544   1.373   .     S
C261   N3959   1.336   1_565 S
C262   H325    1.071   .     S
C262   C2543   1.373   .     S
C262   C2544   1.356   1_545 D
C263   C264    1.405   .     S
C263   C1528   1.469   .     S
C264   C265    1.372   .     S
C264   N3960   1.336   1_565 D
C265   H326    1.070   .     S
C265   C2547   1.356   1_565 D
N266   C1362   1.428   .     S
N266   C1219   1.428   .     S
C327   C328    1.386   .     D
C327   C332    1.386   .     S
C327   C904    1.465   .     S
C328   C329    1.383   .     S
C328   H430    1.071   .     S
C329   C330    1.385   .     D
C329   H431    1.071   .     S
C330   C331    1.393   .     S
C330   N333    1.421   .     S
C331   C332    1.381   .     D
C331   H432    1.070   .     S
C332   H433    1.071   .     S
N333   C334    1.286   .     D
C334   C335    1.459   .     S
C334   H434    1.071   .     S
C335   C336    1.386   .     D
C335   C340    1.390   .     S
C336   C337    1.381   .     S
C336   H435    1.071   .     S
C337   C338    1.392   .     D
C337   H436    1.070   .     S
C338   C339    1.391   .     S
C338   C341    1.472   .     S
C339   C340    1.383   .     D
C339   H437    1.071   .     S
C340   H438    1.071   .     S
C341   C342    1.391   .     D
C341   C346    1.392   .     S
C342   C343    1.380   .     S
C342   H439    1.071   .     S
C343   C344    1.389   .     D
C343   H440    1.071   .     S
C344   C345    1.389   .     S
C344   N3963   1.431   .     S
C345   C346    1.382   .     D
C345   H441    1.070   .     S
C346   H442    1.069   .     S
C347   C348    1.386   .     S
C347   C352    1.386   .     D
C347   C1227   1.469   .     S
C348   C349    1.381   .     D
C348   H443    1.072   .     S
C349   C350    1.385   .     S
C349   H444    1.070   .     S
C350   C351    1.395   .     D
C350   N353    1.422   .     S
C351   C352    1.383   .     S
C351   H445    1.067   .     S
C352   H446    1.071   .     S
N353   C354    1.285   .     D
C354   C355    1.460   .     S
C354   H447    1.068   .     S
C355   C356    1.387   .     S
C355   C360    1.389   .     D
C356   C357    1.382   .     D
C356   H448    1.072   .     S
C357   C358    1.390   .     S
C357   H449    1.071   .     S
C358   C359    1.391   .     D
C358   C361    1.468   .     S
C359   C360    1.382   .     S
C359   H450    1.070   .     S
C360   H451    1.071   .     S
C361   C362    1.390   .     S
C361   C366    1.390   .     D
C362   C363    1.381   .     D
C362   H452    1.070   .     S
C363   C364    1.389   .     S
C363   H453    1.071   .     S
C364   C365    1.388   .     D
C364   N429    1.429   .     S
C365   C366    1.383   .     S
C365   H454    1.071   .     S
C366   H455    1.070   .     S
C367   C368    1.387   .     S
C367   C372    1.386   .     D
C367   C1075   1.469   .     S
C368   C369    1.381   .     D
C368   H456    1.071   .     S
C369   C370    1.385   .     S
C369   H457    1.071   .     S
C370   C371    1.395   .     D
C370   N373    1.422   .     S
C371   C372    1.382   .     S
C371   H458    1.067   .     S
C372   H459    1.071   .     S
N373   C374    1.286   .     D
C374   C375    1.461   .     S
C374   H460    1.070   .     S
C375   C376    1.387   .     S
C375   C380    1.390   .     D
C376   C377    1.382   .     D
C376   H461    1.072   .     S
C377   C378    1.390   .     S
C377   H462    1.072   .     S
C378   C379    1.390   .     D
C378   C381    1.468   .     S
C379   C380    1.382   .     S
C379   H463    1.071   .     S
C380   H464    1.071   .     S
C381   C382    1.390   .     D
C381   C386    1.391   .     S
C382   C383    1.382   .     S
C382   H465    1.070   .     S
C383   C384    1.390   .     D
C383   H466    1.071   .     S
C384   C385    1.389   .     S
C384   N1081   1.428   .     S
C385   C386    1.382   .     D
C385   H467    1.071   .     S
C386   H468    1.070   .     S
C387   C388    1.385   .     D
C387   C392    1.386   .     S
C387   C752    1.469   .     S
C388   C389    1.382   .     S
C388   H469    1.071   .     S
C389   C390    1.386   .     D
C389   H470    1.070   .     S
C390   C391    1.395   .     S
C390   N393    1.423   .     S
C391   C392    1.382   .     D
C391   H471    1.067   .     S
C392   H472    1.071   .     S
N393   C394    1.286   .     D
C394   C395    1.460   .     S
C394   H473    1.068   .     S
C395   C396    1.387   .     D
C395   C400    1.390   .     S
C396   C397    1.382   .     S
C396   H474    1.072   .     S
C397   C398    1.390   .     D
C397   H475    1.071   .     S
C398   C399    1.390   .     S
C398   C401    1.468   .     S
C399   C400    1.382   .     D
C399   H476    1.071   .     S
C400   H477    1.071   .     S
C401   C402    1.391   .     D
C401   C406    1.391   .     S
C402   C403    1.381   .     S
C402   H478    1.071   .     S
C403   C404    1.388   .     D
C403   H479    1.071   .     S
C404   C405    1.389   .     S
C404   N1733   1.428   .     S
C405   C406    1.382   .     D
C405   H480    1.071   .     S
C406   H481    1.070   .     S
C407   C408    1.371   .     S
C407   C411    1.357   .     D
C407   H482    1.071   .     S
C408   N409    1.337   .     D
C408   C415    1.405   .     S
N409   C410    1.336   .     S
N409   Cu3986  1.872   .     S
C410   C411    1.372   .     S
C410   C412    1.406   .     D
C411   H483    1.070   .     S
C412   C413    1.404   .     S
C412   C1488   1.469   .     S
C413   C2044   1.373   .     S
C413   N3931   1.337   .     D
C414   H484    1.070   .     S
C414   C2043   1.373   .     S
C414   C2044   1.356   .     D
C415   C416    1.403   .     D
C415   C1305   1.465   .     S
C416   C417    1.372   .     S
C416   N3932   1.334   .     S
C417   H485    1.070   .     S
C417   C2047   1.358   .     D
C418   C419    1.372   .     S
C418   C422    1.356   .     D
C418   H486    1.071   .     S
C419   N420    1.336   .     D
C419   C426    1.406   .     S
N420   C421    1.337   .     S
N420   Cu3979  1.873   .     S
C421   C422    1.372   .     S
C421   C423    1.405   .     D
C422   H487    1.071   .     S
C423   C424    1.405   .     S
C423   C1671   1.469   .     S
C424   C2055   1.373   .     S
C424   N3955   1.336   .     D
C425   H488    1.071   .     S
C425   C2054   1.373   .     S
C425   C2055   1.356   1_565 D
C426   C427    1.405   .     D
C426   C1854   1.469   .     S
C427   C428    1.372   .     S
C427   N3956   1.336   .     S
C428   H489    1.070   .     S
C428   C2058   1.356   1_545 D
N429   C1688   1.428   .     S
N429   C1056   1.428   .     S
C490   C491    1.386   .     D
C490   C495    1.386   .     S
C490   C1230   1.465   .     S
C491   C492    1.383   .     S
C491   H593    1.071   .     S
C492   C493    1.385   .     D
C492   H594    1.071   .     S
C493   C494    1.393   .     S
C493   N496    1.421   .     S
C494   C495    1.381   .     D
C494   H595    1.070   .     S
C495   H596    1.071   .     S
N496   C497    1.286   .     D
C497   C498    1.459   .     S
C497   H597    1.071   .     S
C498   C499    1.386   .     D
C498   C503    1.390   .     S
C499   C500    1.381   .     S
C499   H598    1.071   .     S
C500   C501    1.392   .     D
C500   H599    1.070   .     S
C501   C502    1.391   .     S
C501   C504    1.472   .     S
C502   C503    1.383   .     D
C502   H600    1.071   .     S
C503   H601    1.071   .     S
C504   C505    1.391   .     D
C504   C509    1.392   .     S
C505   C506    1.380   .     S
C505   H602    1.071   .     S
C506   C507    1.389   .     D
C506   H603    1.071   .     S
C507   C508    1.389   .     S
C507   N3964   1.431   .     S
C508   C509    1.382   .     D
C508   H604    1.070   .     S
C509   H605    1.069   .     S
C510   C511    1.386   .     S
C510   C515    1.386   .     D
C510   C901    1.469   .     S
C511   C512    1.381   .     D
C511   H606    1.072   .     S
C512   C513    1.385   .     S
C512   H607    1.070   .     S
C513   C514    1.395   .     D
C513   N516    1.422   .     S
C514   C515    1.383   .     S
C514   H608    1.067   .     S
C515   H609    1.071   .     S
N516   C517    1.285   .     D
C517   C518    1.460   .     S
C517   H610    1.068   .     S
C518   C519    1.387   .     S
C518   C523    1.389   .     D
C519   C520    1.382   .     D
C519   H611    1.072   .     S
C520   C521    1.390   .     S
C520   H612    1.071   .     S
C521   C522    1.391   .     D
C521   C524    1.468   .     S
C522   C523    1.382   .     S
C522   H613    1.070   .     S
C523   H614    1.071   .     S
C524   C525    1.390   .     S
C524   C529    1.390   .     D
C525   C526    1.381   .     D
C525   H615    1.070   .     S
C526   C527    1.389   .     S
C526   H616    1.071   .     S
C527   C528    1.388   .     D
C527   N592    1.429   .     S
C528   C529    1.383   .     S
C528   H617    1.071   .     S
C529   H618    1.070   .     S
C530   C531    1.387   .     D
C530   C535    1.386   .     S
C530   C749    1.469   .     S
C531   C532    1.381   .     S
C531   H619    1.071   .     S
C532   C533    1.385   .     D
C532   H620    1.071   .     S
C533   C534    1.395   .     S
C533   N536    1.422   .     S
C534   C535    1.382   .     D
C534   H621    1.067   .     S
C535   H622    1.071   .     S
N536   C537    1.286   .     D
C537   C538    1.461   .     S
C537   H623    1.070   .     S
C538   C539    1.387   .     D
C538   C543    1.390   .     S
C539   C540    1.382   .     S
C539   H624    1.072   .     S
C540   C541    1.390   .     D
C540   H625    1.072   .     S
C541   C542    1.390   .     S
C541   C544    1.468   .     S
C542   C543    1.382   .     D
C542   H626    1.071   .     S
C543   H627    1.071   .     S
C544   C545    1.390   .     D
C544   C549    1.391   .     S
C545   C546    1.382   .     S
C545   H628    1.070   .     S
C546   C547    1.390   .     D
C546   H629    1.071   .     S
C547   C548    1.389   .     S
C547   N755    1.428   .     S
C548   C549    1.382   .     D
C548   H630    1.071   .     S
C549   H631    1.070   .     S
C550   C551    1.385   .     D
C550   C555    1.386   .     S
C550   C1078   1.469   .     S
C551   C552    1.382   .     S
C551   H632    1.071   .     S
C552   C553    1.386   .     D
C552   H633    1.070   .     S
C553   C554    1.395   .     S
C553   N556    1.423   .     S
C554   C555    1.382   .     D
C554   H634    1.067   .     S
C555   H635    1.071   .     S
N556   C557    1.286   .     D
C557   C558    1.460   .     S
C557   H636    1.068   .     S
C558   C559    1.387   .     D
C558   C563    1.390   .     S
C559   C560    1.382   .     S
C559   H637    1.072   .     S
C560   C561    1.390   .     D
C560   H638    1.071   .     S
C561   C562    1.390   .     S
C561   C564    1.468   .     S
C562   C563    1.382   .     D
C562   H639    1.071   .     S
C563   H640    1.071   .     S
C564   C565    1.391   .     D
C564   C569    1.391   .     S
C565   C566    1.381   .     S
C565   H641    1.071   .     S
C566   C567    1.388   .     D
C566   H642    1.071   .     S
C567   C568    1.389   .     S
C567   N1570   1.428   .     S
C568   C569    1.382   .     D
C568   H643    1.071   .     S
C569   H644    1.070   .     S
C570   C571    1.371   .     S
C570   C574    1.357   .     D
C570   H645    1.071   .     S
C571   N572    1.337   .     S
C571   C578    1.405   .     D
N572   C573    1.336   .     D
N572   Cu3988  1.872   .     S
C573   C574    1.372   .     S
C573   C575    1.406   .     S
C574   H646    1.070   .     S
C575   C576    1.404   .     D
C575   C1651   1.469   .     S
C576   C2207   1.373   .     S
C576   N3933   1.337   .     S
C577   H647    1.070   .     S
C577   C2206   1.373   .     S
C577   C2207   1.356   .     D
C578   C579    1.403   .     S
C578   C1794   1.465   .     S
C579   C580    1.372   .     S
C579   N3934   1.334   .     D
C580   H648    1.070   .     S
C580   C2210   1.358   .     D
C581   C582    1.372   .     S
C581   C585    1.356   .     D
C581   H649    1.071   .     S
C582   N583    1.336   .     S
C582   C589    1.406   .     D
N583   C584    1.337   .     D
N583   Cu3978  1.873   1_565 S
C584   C585    1.372   .     S
C584   C586    1.405   .     S
C585   H650    1.071   .     S
C586   C587    1.405   .     D
C586   C1508   1.469   .     S
C587   C2218   1.373   .     S
C587   N3957   1.336   1_565 S
C588   H651    1.071   .     S
C588   C2217   1.373   .     S
C588   C2218   1.356   1_545 D
C589   C590    1.405   .     S
C589   C1365   1.469   .     S
C590   C591    1.372   .     S
C590   N3958   1.336   1_565 D
C591   H652    1.070   .     S
C591   C2221   1.356   1_565 D
N592   C1525   1.428   .     S
N592   C730    1.428   .     S
C653   C654    1.386   .     D
C653   C658    1.386   .     S
C653   C1719   1.465   .     S
C654   C655    1.383   .     S
C654   H756    1.071   .     S
C655   C656    1.385   .     D
C655   H757    1.071   .     S
C656   C657    1.393   .     S
C656   N659    1.421   .     S
C657   C658    1.381   .     D
C657   H758    1.070   .     S
C658   H759    1.071   .     S
N659   C660    1.286   .     D
C660   C661    1.459   .     S
C660   H760    1.071   .     S
C661   C662    1.386   .     D
C661   C666    1.390   .     S
C662   C663    1.381   .     S
C662   H761    1.071   .     S
C663   C664    1.392   .     D
C663   H762    1.070   .     S
C664   C665    1.391   .     S
C664   C667    1.472   .     S
C665   C666    1.383   .     D
C665   H763    1.071   .     S
C666   H764    1.071   .     S
C667   C668    1.391   .     D
C667   C672    1.392   .     S
C668   C669    1.380   .     S
C668   H765    1.071   .     S
C669   C670    1.389   .     D
C669   H766    1.071   .     S
C670   C671    1.389   .     S
C670   N3964   1.431   .     S
C671   C672    1.382   .     D
C671   H767    1.070   .     S
C672   H768    1.069   .     S
C673   C674    1.386   .     D
C673   C678    1.386   .     S
C673   C1390   1.469   .     S
C674   C675    1.381   .     S
C674   H769    1.072   .     S
C675   C676    1.385   .     D
C675   H770    1.070   .     S
C676   C677    1.395   .     S
C676   N679    1.422   .     S
C677   C678    1.383   .     D
C677   H771    1.067   .     S
C678   H772    1.071   .     S
N679   C680    1.285   .     D
C680   C681    1.460   .     S
C680   H773    1.068   .     S
C681   C682    1.387   .     D
C681   C686    1.389   .     S
C682   C683    1.382   .     S
C682   H774    1.072   .     S
C683   C684    1.390   .     D
C683   H775    1.071   .     S
C684   C685    1.391   .     S
C684   C687    1.468   .     S
C685   C686    1.382   .     D
C685   H776    1.070   .     S
C686   H777    1.071   .     S
C687   C688    1.390   .     D
C687   C692    1.390   .     S
C688   C689    1.381   .     S
C688   H778    1.070   .     S
C689   C690    1.389   .     D
C689   H779    1.071   .     S
C690   C691    1.388   .     S
C690   N755    1.429   .     S
C691   C692    1.383   .     D
C691   H780    1.071   .     S
C692   H781    1.070   .     S
C693   C694    1.387   .     S
C693   C698    1.386   .     D
C693   C1564   1.469   .     S
C694   C695    1.381   .     D
C694   H782    1.071   .     S
C695   C696    1.385   .     S
C695   H783    1.071   .     S
C696   C697    1.395   .     D
C696   N699    1.422   .     S
C697   C698    1.382   .     S
C697   H784    1.067   .     S
C698   H785    1.071   .     S
N699   C700    1.286   .     D
C700   C701    1.461   .     S
C700   H786    1.070   .     S
C701   C702    1.387   .     S
C701   C706    1.390   .     D
C702   C703    1.382   .     D
C702   H787    1.072   .     S
C703   C704    1.390   .     S
C703   H788    1.072   .     S
C704   C705    1.390   .     D
C704   C707    1.468   .     S
C705   C706    1.382   .     S
C705   H789    1.071   .     S
C706   H790    1.071   .     S
C707   C708    1.390   .     S
C707   C712    1.391   .     D
C708   C709    1.382   .     D
C708   H791    1.070   .     S
C709   C710    1.390   .     S
C709   H792    1.071   .     S
C710   C711    1.389   .     D
C710   N1570   1.428   .     S
C711   C712    1.382   .     S
C711   H793    1.071   .     S
C712   H794    1.070   .     S
C713   C714    1.385   .     D
C713   C718    1.386   .     S
C713   C1893   1.469   .     S
C714   C715    1.382   .     S
C714   H795    1.071   .     S
C715   C716    1.386   .     D
C715   H796    1.070   .     S
C716   C717    1.395   .     S
C716   N719    1.423   .     S
C717   C718    1.382   .     D
C717   H797    1.067   .     S
C718   H798    1.071   .     S
N719   C720    1.286   .     D
C720   C721    1.460   .     S
C720   H799    1.068   .     S
C721   C722    1.387   .     D
C721   C726    1.390   .     S
C722   C723    1.382   .     S
C722   H800    1.072   .     S
C723   C724    1.390   .     D
C723   H801    1.071   .     S
C724   C725    1.390   .     S
C724   C727    1.468   .     S
C725   C726    1.382   .     D
C725   H802    1.071   .     S
C726   H803    1.071   .     S
C727   C728    1.391   .     D
C727   C732    1.391   .     S
C728   C729    1.381   .     S
C728   H804    1.071   .     S
C729   C730    1.388   .     D
C729   H805    1.071   .     S
C730   C731    1.389   .     S
C731   C732    1.382   .     D
C731   H806    1.071   .     S
C732   H807    1.070   .     S
C733   C734    1.371   .     S
C733   C737    1.357   .     D
C733   H808    1.071   .     S
C734   N735    1.337   .     S
C734   C741    1.405   .     D
N735   C736    1.336   .     D
N735   Cu3991  1.872   .     S
C736   C737    1.372   .     S
C736   C738    1.406   .     S
C737   H809    1.070   .     S
C738   C739    1.404   .     D
C739   C3022   1.373   .     S
C739   N3913   1.337   .     S
C740   H810    1.070   .     S
C740   C3021   1.373   .     S
C740   C3022   1.356   .     D
C741   C742    1.403   .     S
C742   C743    1.372   .     S
C742   N3914   1.334   .     D
C743   H811    1.070   .     S
C743   C3025   1.358   .     D
C744   C745    1.372   .     S
C744   C748    1.356   .     D
C744   H812    1.071   .     S
C745   N746    1.336   .     D
C745   C752    1.406   .     S
N746   C747    1.337   .     S
N746   Cu3972  1.873   .     S
C747   C748    1.372   .     S
C747   C749    1.405   .     D
C748   H813    1.071   .     S
C749   C750    1.405   .     S
C750   C3033   1.373   .     S
C750   N3937   1.336   .     D
C751   H814    1.071   .     S
C751   C3032   1.373   .     S
C751   C3033   1.356   1_556 D
C752   C753    1.405   .     D
C753   C754    1.372   .     S
C753   N3938   1.336   .     S
C754   H815    1.070   .     S
C754   C3036   1.356   1_554 D
N755   C1545   1.428   .     S
C816   C817    1.386   .     D
C816   C821    1.386   .     S
C816   C1393   1.465   .     S
C817   C818    1.383   .     S
C817   H919    1.071   .     S
C818   C819    1.385   .     D
C818   H920    1.071   .     S
C819   C820    1.393   .     S
C819   N822    1.421   .     S
C820   C821    1.381   .     D
C820   H921    1.070   .     S
C821   H922    1.071   .     S
N822   C823    1.286   .     D
C823   C824    1.459   .     S
C823   H923    1.071   .     S
C824   C825    1.386   .     D
C824   C829    1.390   .     S
C825   C826    1.381   .     S
C825   H924    1.071   .     S
C826   C827    1.392   .     D
C826   H925    1.070   .     S
C827   C828    1.391   .     S
C827   C830    1.472   .     S
C828   C829    1.383   .     D
C828   H926    1.071   .     S
C829   H927    1.071   .     S
C830   C831    1.391   .     D
C830   C835    1.392   .     S
C831   C832    1.380   .     S
C831   H928    1.071   .     S
C832   C833    1.389   .     D
C832   H929    1.071   .     S
C833   C834    1.389   .     S
C833   N3961   1.431   .     S
C834   C835    1.382   .     D
C834   H930    1.070   .     S
C835   H931    1.069   .     S
C836   C837    1.386   .     D
C836   C841    1.386   .     S
C836   C1716   1.469   .     S
C837   C838    1.381   .     S
C837   H932    1.072   .     S
C838   C839    1.385   .     D
C838   H933    1.070   .     S
C839   C840    1.395   .     S
C839   N842    1.422   .     S
C840   C841    1.383   .     D
C840   H934    1.067   .     S
C841   H935    1.071   .     S
N842   C843    1.285   .     D
C843   C844    1.460   .     S
C843   H936    1.068   .     S
C844   C845    1.387   .     D
C844   C849    1.389   .     S
C845   C846    1.382   .     S
C845   H937    1.072   .     S
C846   C847    1.390   .     D
C846   H938    1.071   .     S
C847   C848    1.391   .     S
C847   C850    1.468   .     S
C848   C849    1.382   .     D
C848   H939    1.070   .     S
C849   H940    1.071   .     S
C850   C851    1.390   .     D
C850   C855    1.390   .     S
C851   C852    1.381   .     S
C851   H941    1.070   .     S
C852   C853    1.389   .     D
C852   H942    1.071   .     S
C853   C854    1.388   .     S
C853   N918    1.429   .     S
C854   C855    1.383   .     D
C854   H943    1.071   .     S
C855   H944    1.070   .     S
C856   C857    1.387   .     D
C856   C861    1.386   .     S
C856   C1890   1.469   .     S
C857   C858    1.381   .     S
C857   H945    1.071   .     S
C858   C859    1.385   .     D
C858   H946    1.071   .     S
C859   C860    1.395   .     S
C859   N862    1.422   .     S
C860   C861    1.382   .     D
C860   H947    1.067   .     S
C861   H948    1.071   .     S
N862   C863    1.286   .     D
C863   C864    1.461   .     S
C863   H949    1.070   .     S
C864   C865    1.387   .     D
C864   C869    1.390   .     S
C865   C866    1.382   .     S
C865   H950    1.072   .     S
C866   C867    1.390   .     D
C866   H951    1.072   .     S
C867   C868    1.390   .     S
C867   C870    1.468   .     S
C868   C869    1.382   .     D
C868   H952    1.071   .     S
C869   H953    1.071   .     S
C870   C871    1.390   .     D
C870   C875    1.391   .     S
C871   C872    1.382   .     S
C871   H954    1.070   .     S
C872   C873    1.390   .     D
C872   H955    1.071   .     S
C873   C874    1.389   .     S
C873   N1896   1.428   .     S
C874   C875    1.382   .     D
C874   H956    1.071   .     S
C875   H957    1.070   .     S
C876   C877    1.385   .     D
C876   C881    1.386   .     S
C876   C1567   1.469   .     S
C877   C878    1.382   .     S
C877   H958    1.071   .     S
C878   C879    1.386   .     D
C878   H959    1.070   .     S
C879   C880    1.395   .     S
C879   N882    1.423   .     S
C880   C881    1.382   .     D
C880   H960    1.067   .     S
C881   H961    1.071   .     S
N882   C883    1.286   .     D
C883   C884    1.460   .     S
C883   H962    1.068   .     S
C884   C885    1.387   .     D
C884   C889    1.390   .     S
C885   C886    1.382   .     S
C885   H963    1.072   .     S
C886   C887    1.390   .     D
C886   H964    1.071   .     S
C887   C888    1.390   .     S
C887   C890    1.468   .     S
C888   C889    1.382   .     D
C888   H965    1.071   .     S
C889   H966    1.071   .     S
C890   C891    1.391   .     D
C890   C895    1.391   .     S
C891   C892    1.381   .     S
C891   H967    1.071   .     S
C892   C893    1.388   .     D
C892   H968    1.071   .     S
C893   C894    1.389   .     S
C894   C895    1.382   .     D
C894   H969    1.071   .     S
C895   H970    1.070   .     S
C896   C897    1.371   .     S
C896   C900    1.357   .     D
C896   H971    1.071   .     S
C897   N898    1.337   .     S
C897   C904    1.405   .     D
N898   C899    1.336   .     D
N898   Cu3989  1.872   .     S
C899   C900    1.372   .     S
C899   C901    1.406   .     S
C900   H972    1.070   .     S
C901   C902    1.404   .     D
C902   C3185   1.373   .     S
C902   N3919   1.337   .     S
C903   H973    1.070   .     S
C903   C3184   1.373   .     S
C903   C3185   1.356   .     D
C904   C905    1.403   .     S
C905   C906    1.372   .     S
C905   N3920   1.334   .     D
C906   H974    1.070   .     S
C906   C3188   1.358   .     D
C907   C908    1.372   .     S
C907   C911    1.356   .     D
C907   H975    1.071   .     S
C908   N909    1.336   .     S
C908   C915    1.406   .     D
N909   C910    1.337   .     D
N909   Cu3969  1.873   1_556 S
C910   C911    1.372   .     S
C910   C912    1.405   .     S
C911   H976    1.071   .     S
C912   C913    1.405   .     D
C913   C3196   1.373   .     S
C913   N3943   1.336   1_556 S
C914   H977    1.071   .     S
C914   C3195   1.373   .     S
C914   C3196   1.356   1_554 D
C915   C916    1.405   .     S
C916   C917    1.372   .     S
C916   N3944   1.336   1_556 D
C917   H978    1.070   .     S
C917   C3199   1.356   1_556 D
N918   C1871   1.428   .     S
C979   C980    1.386   .     D
C979   C984    1.386   .     S
C979   C1556   1.465   .     S
C980   C981    1.383   .     S
C980   H1082   1.071   .     S
C981   C982    1.385   .     D
C981   H1083   1.071   .     S
C982   C983    1.393   .     S
C982   N985    1.421   .     S
C983   C984    1.381   .     D
C983   H1084   1.070   .     S
C984   H1085   1.071   .     S
N985   C986    1.286   .     D
C986   C987    1.459   .     S
C986   H1086   1.071   .     S
C987   C988    1.386   .     D
C987   C992    1.390   .     S
C988   C989    1.381   .     S
C988   H1087   1.071   .     S
C989   C990    1.392   .     D
C989   H1088   1.070   .     S
C990   C991    1.391   .     S
C990   C993    1.472   .     S
C991   C992    1.383   .     D
C991   H1089   1.071   .     S
C992   H1090   1.071   .     S
C993   C994    1.391   .     D
C993   C998    1.392   .     S
C994   C995    1.380   .     S
C994   H1091   1.071   .     S
C995   C996    1.389   .     D
C995   H1092   1.071   .     S
C996   C997    1.389   .     S
C996   N3963   1.431   .     S
C997   C998    1.382   .     D
C997   H1093   1.070   .     S
C998   H1094   1.069   .     S
C999   C1000   1.386   .     D
C999   C1004   1.386   .     S
C999   C1879   1.469   .     S
C1000  C1001   1.381   .     S
C1000  H1095   1.072   .     S
C1001  C1002   1.385   .     D
C1001  H1096   1.070   .     S
C1002  C1003   1.395   .     S
C1002  N1005   1.422   .     S
C1003  C1004   1.383   .     D
C1003  H1097   1.067   .     S
C1004  H1098   1.071   .     S
N1005  C1006   1.285   .     D
C1006  C1007   1.460   .     S
C1006  H1099   1.068   .     S
C1007  C1008   1.387   .     D
C1007  C1012   1.389   .     S
C1008  C1009   1.382   .     S
C1008  H1100   1.072   .     S
C1009  C1010   1.390   .     D
C1009  H1101   1.071   .     S
C1010  C1011   1.391   .     S
C1010  C1013   1.468   .     S
C1011  C1012   1.382   .     D
C1011  H1102   1.070   .     S
C1012  H1103   1.071   .     S
C1013  C1014   1.390   .     D
C1013  C1018   1.390   .     S
C1014  C1015   1.381   .     S
C1014  H1104   1.070   .     S
C1015  C1016   1.389   .     D
C1015  H1105   1.071   .     S
C1016  C1017   1.388   .     S
C1016  N1081   1.429   .     S
C1017  C1018   1.383   .     D
C1017  H1106   1.071   .     S
C1018  H1107   1.070   .     S
C1019  C1020   1.387   .     D
C1019  C1024   1.386   .     S
C1019  C1727   1.469   .     S
C1020  C1021   1.381   .     S
C1020  H1108   1.071   .     S
C1021  C1022   1.385   .     D
C1021  H1109   1.071   .     S
C1022  C1023   1.395   .     S
C1022  N1025   1.422   .     S
C1023  C1024   1.382   .     D
C1023  H1110   1.067   .     S
C1024  H1111   1.071   .     S
N1025  C1026   1.286   .     D
C1026  C1027   1.461   .     S
C1026  H1112   1.070   .     S
C1027  C1028   1.387   .     D
C1027  C1032   1.390   .     S
C1028  C1029   1.382   .     S
C1028  H1113   1.072   .     S
C1029  C1030   1.390   .     D
C1029  H1114   1.072   .     S
C1030  C1031   1.390   .     S
C1030  C1033   1.468   .     S
C1031  C1032   1.382   .     D
C1031  H1115   1.071   .     S
C1032  H1116   1.071   .     S
C1033  C1034   1.390   .     D
C1033  C1038   1.391   .     S
C1034  C1035   1.382   .     S
C1034  H1117   1.070   .     S
C1035  C1036   1.390   .     D
C1035  H1118   1.071   .     S
C1036  C1037   1.389   .     S
C1036  N1733   1.428   .     S
C1037  C1038   1.382   .     D
C1037  H1119   1.071   .     S
C1038  H1120   1.070   .     S
C1039  C1040   1.385   .     D
C1039  C1044   1.386   .     S
C1039  C1404   1.469   .     S
C1040  C1041   1.382   .     S
C1040  H1121   1.071   .     S
C1041  C1042   1.386   .     D
C1041  H1122   1.070   .     S
C1042  C1043   1.395   .     S
C1042  N1045   1.423   .     S
C1043  C1044   1.382   .     D
C1043  H1123   1.067   .     S
C1044  H1124   1.071   .     S
N1045  C1046   1.286   .     D
C1046  C1047   1.460   .     S
C1046  H1125   1.068   .     S
C1047  C1048   1.387   .     D
C1047  C1052   1.390   .     S
C1048  C1049   1.382   .     S
C1048  H1126   1.072   .     S
C1049  C1050   1.390   .     D
C1049  H1127   1.071   .     S
C1050  C1051   1.390   .     S
C1050  C1053   1.468   .     S
C1051  C1052   1.382   .     D
C1051  H1128   1.071   .     S
C1052  H1129   1.071   .     S
C1053  C1054   1.391   .     D
C1053  C1058   1.391   .     S
C1054  C1055   1.381   .     S
C1054  H1130   1.071   .     S
C1055  C1056   1.388   .     D
C1055  H1131   1.071   .     S
C1056  C1057   1.389   .     S
C1057  C1058   1.382   .     D
C1057  H1132   1.071   .     S
C1058  H1133   1.070   .     S
C1059  C1060   1.371   .     S
C1059  C1063   1.357   .     D
C1059  H1134   1.071   .     S
C1060  N1061   1.337   .     D
C1060  C1067   1.405   .     S
N1061  C1062   1.336   .     S
N1061  Cu3990  1.872   .     S
C1062  C1063   1.372   .     S
C1062  C1064   1.406   .     D
C1063  H1135   1.070   .     S
C1064  C1065   1.404   .     S
C1065  C2696   1.373   .     S
C1065  N3915   1.337   .     D
C1066  H1136   1.070   .     S
C1066  C2695   1.373   .     S
C1066  C2696   1.356   .     D
C1067  C1068   1.403   .     D
C1068  C1069   1.372   .     S
C1068  N3916   1.334   .     S
C1069  H1137   1.070   .     S
C1069  C2699   1.358   .     D
C1070  C1071   1.372   .     S
C1070  C1074   1.356   .     D
C1070  H1138   1.071   .     S
C1071  N1072   1.336   .     D
C1071  C1078   1.406   .     S
N1072  C1073   1.337   .     S
N1072  Cu3971  1.873   .     S
C1073  C1074   1.372   .     S
C1073  C1075   1.405   .     D
C1074  H1139   1.071   .     S
C1075  C1076   1.405   .     S
C1076  C2707   1.373   .     S
C1076  N3939   1.336   .     D
C1077  H1140   1.071   .     S
C1077  C2706   1.373   .     S
C1077  C2707   1.356   1_556 D
C1078  C1079   1.405   .     D
C1079  C1080   1.372   .     S
C1079  N3940   1.336   .     S
C1080  H1141   1.070   .     S
C1080  C2710   1.356   1_554 D
N1081  C1708   1.428   .     S
C1142  C1143   1.386   .     D
C1142  C1147   1.386   .     S
C1142  C1882   1.465   .     S
C1143  C1144   1.383   .     S
C1143  H1245   1.071   .     S
C1144  C1145   1.385   .     D
C1144  H1246   1.071   .     S
C1145  C1146   1.393   .     S
C1145  N1148   1.421   .     S
C1146  C1147   1.381   .     D
C1146  H1247   1.070   .     S
C1147  H1248   1.071   .     S
N1148  C1149   1.286   .     D
C1149  C1150   1.459   .     S
C1149  H1249   1.071   .     S
C1150  C1151   1.386   .     D
C1150  C1155   1.390   .     S
C1151  C1152   1.381   .     S
C1151  H1250   1.071   .     S
C1152  C1153   1.392   .     D
C1152  H1251   1.070   .     S
C1153  C1154   1.391   .     S
C1153  C1156   1.472   .     S
C1154  C1155   1.383   .     D
C1154  H1252   1.071   .     S
C1155  H1253   1.071   .     S
C1156  C1157   1.391   .     D
C1156  C1161   1.392   .     S
C1157  C1158   1.380   .     S
C1157  H1254   1.071   .     S
C1158  C1159   1.389   .     D
C1158  H1255   1.071   .     S
C1159  C1160   1.389   .     S
C1159  N3962   1.431   .     S
C1160  C1161   1.382   .     D
C1160  H1256   1.070   .     S
C1161  H1257   1.069   .     S
C1162  C1163   1.386   .     D
C1162  C1167   1.386   .     S
C1162  C1553   1.469   .     S
C1163  C1164   1.381   .     S
C1163  H1258   1.072   .     S
C1164  C1165   1.385   .     D
C1164  H1259   1.070   .     S
C1165  C1166   1.395   .     S
C1165  N1168   1.422   .     S
C1166  C1167   1.383   .     D
C1166  H1260   1.067   .     S
C1167  H1261   1.071   .     S
N1168  C1169   1.285   .     D
C1169  C1170   1.460   .     S
C1169  H1262   1.068   .     S
C1170  C1171   1.387   .     D
C1170  C1175   1.389   .     S
C1171  C1172   1.382   .     S
C1171  H1263   1.072   .     S
C1172  C1173   1.390   .     D
C1172  H1264   1.071   .     S
C1173  C1174   1.391   .     S
C1173  C1176   1.468   .     S
C1174  C1175   1.382   .     D
C1174  H1265   1.070   .     S
C1175  H1266   1.071   .     S
C1176  C1177   1.390   .     D
C1176  C1181   1.390   .     S
C1177  C1178   1.381   .     S
C1177  H1267   1.070   .     S
C1178  C1179   1.389   .     D
C1178  H1268   1.071   .     S
C1179  C1180   1.388   .     S
C1179  N1244   1.429   .     S
C1180  C1181   1.383   .     D
C1180  H1269   1.071   .     S
C1181  H1270   1.070   .     S
C1182  C1183   1.387   .     D
C1182  C1187   1.386   .     S
C1182  C1401   1.469   .     S
C1183  C1184   1.381   .     S
C1183  H1271   1.071   .     S
C1184  C1185   1.385   .     D
C1184  H1272   1.071   .     S
C1185  C1186   1.395   .     S
C1185  N1188   1.422   .     S
C1186  C1187   1.382   .     D
C1186  H1273   1.067   .     S
C1187  H1274   1.071   .     S
N1188  C1189   1.286   .     D
C1189  C1190   1.461   .     S
C1189  H1275   1.070   .     S
C1190  C1191   1.387   .     D
C1190  C1195   1.390   .     S
C1191  C1192   1.382   .     S
C1191  H1276   1.072   .     S
C1192  C1193   1.390   .     D
C1192  H1277   1.072   .     S
C1193  C1194   1.390   .     S
C1193  C1196   1.468   .     S
C1194  C1195   1.382   .     D
C1194  H1278   1.071   .     S
C1195  H1279   1.071   .     S
C1196  C1197   1.390   .     D
C1196  C1201   1.391   .     S
C1197  C1198   1.382   .     S
C1197  H1280   1.070   .     S
C1198  C1199   1.390   .     D
C1198  H1281   1.071   .     S
C1199  C1200   1.389   .     S
C1199  N1407   1.428   .     S
C1200  C1201   1.382   .     D
C1200  H1282   1.071   .     S
C1201  H1283   1.070   .     S
C1202  C1203   1.385   .     D
C1202  C1207   1.386   .     S
C1202  C1730   1.469   .     S
C1203  C1204   1.382   .     S
C1203  H1284   1.071   .     S
C1204  C1205   1.386   .     D
C1204  H1285   1.070   .     S
C1205  C1206   1.395   .     S
C1205  N1208   1.423   .     S
C1206  C1207   1.382   .     D
C1206  H1286   1.067   .     S
C1207  H1287   1.071   .     S
N1208  C1209   1.286   .     D
C1209  C1210   1.460   .     S
C1209  H1288   1.068   .     S
C1210  C1211   1.387   .     D
C1210  C1215   1.390   .     S
C1211  C1212   1.382   .     S
C1211  H1289   1.072   .     S
C1212  C1213   1.390   .     D
C1212  H1290   1.071   .     S
C1213  C1214   1.390   .     S
C1213  C1216   1.468   .     S
C1214  C1215   1.382   .     D
C1214  H1291   1.071   .     S
C1215  H1292   1.071   .     S
C1216  C1217   1.391   .     D
C1216  C1221   1.391   .     S
C1217  C1218   1.381   .     S
C1217  H1293   1.071   .     S
C1218  C1219   1.388   .     D
C1218  H1294   1.071   .     S
C1219  C1220   1.389   .     S
C1220  C1221   1.382   .     D
C1220  H1295   1.071   .     S
C1221  H1296   1.070   .     S
C1222  C1223   1.371   .     S
C1222  C1226   1.357   .     D
C1222  H1297   1.071   .     S
C1223  N1224   1.337   .     D
C1223  C1230   1.405   .     S
N1224  C1225   1.336   .     S
N1224  Cu3992  1.872   .     S
C1225  C1226   1.372   .     S
C1225  C1227   1.406   .     D
C1226  H1298   1.070   .     S
C1227  C1228   1.404   .     S
C1228  C2859   1.373   .     S
C1228  N3917   1.337   .     D
C1229  H1299   1.070   .     S
C1229  C2858   1.373   .     S
C1229  C2859   1.356   .     D
C1230  C1231   1.403   .     D
C1231  C1232   1.372   .     S
C1231  N3918   1.334   .     S
C1232  H1300   1.070   .     S
C1232  C2862   1.358   .     D
C1233  C1234   1.372   .     S
C1233  C1237   1.356   .     D
C1233  H1301   1.071   .     S
C1234  N1235   1.336   .     S
C1234  C1241   1.406   .     D
N1235  C1236   1.337   .     D
N1235  Cu3970  1.873   1_556 S
C1236  C1237   1.372   .     S
C1236  C1238   1.405   .     S
C1237  H1302   1.071   .     S
C1238  C1239   1.405   .     D
C1239  C2870   1.373   .     S
C1239  N3941   1.336   1_556 S
C1240  H1303   1.071   .     S
C1240  C2869   1.373   .     S
C1240  C2870   1.356   1_554 D
C1241  C1242   1.405   .     S
C1242  C1243   1.372   .     S
C1242  N3942   1.336   1_556 D
C1243  H1304   1.070   .     S
C1243  C2873   1.356   1_556 D
N1244  C1382   1.428   .     S
C1305  C1306   1.386   .     D
C1305  C1310   1.386   .     S
C1306  C1307   1.383   .     S
C1306  H1408   1.071   .     S
C1307  C1308   1.385   .     D
C1307  H1409   1.071   .     S
C1308  C1309   1.393   .     S
C1308  N1311   1.421   .     S
C1309  C1310   1.381   .     D
C1309  H1410   1.070   .     S
C1310  H1411   1.071   .     S
N1311  C1312   1.286   .     D
C1312  C1313   1.459   .     S
C1312  H1412   1.071   .     S
C1313  C1314   1.386   .     D
C1313  C1318   1.390   .     S
C1314  C1315   1.381   .     S
C1314  H1413   1.071   .     S
C1315  C1316   1.392   .     D
C1315  H1414   1.070   .     S
C1316  C1317   1.391   .     S
C1316  C1319   1.472   .     S
C1317  C1318   1.383   .     D
C1317  H1415   1.071   .     S
C1318  H1416   1.071   .     S
C1319  C1320   1.391   .     D
C1319  C1324   1.392   .     S
C1320  C1321   1.380   .     S
C1320  H1417   1.071   .     S
C1321  C1322   1.389   .     D
C1321  H1418   1.071   .     S
C1322  C1323   1.389   .     S
C1322  N3962   1.431   .     S
C1323  C1324   1.382   .     D
C1323  H1419   1.070   .     S
C1324  H1420   1.069   .     S
C1325  C1326   1.386   .     D
C1325  C1330   1.386   .     S
C1326  C1327   1.381   .     S
C1326  H1421   1.072   .     S
C1327  C1328   1.385   .     D
C1327  H1422   1.070   .     S
C1328  C1329   1.395   .     S
C1328  N1331   1.422   .     S
C1329  C1330   1.383   .     D
C1329  H1423   1.067   .     S
C1330  H1424   1.071   .     S
N1331  C1332   1.285   .     D
C1332  C1333   1.460   .     S
C1332  H1425   1.068   .     S
C1333  C1334   1.387   .     D
C1333  C1338   1.389   .     S
C1334  C1335   1.382   .     S
C1334  H1426   1.072   .     S
C1335  C1336   1.390   .     D
C1335  H1427   1.071   .     S
C1336  C1337   1.391   .     S
C1336  C1339   1.468   .     S
C1337  C1338   1.382   .     D
C1337  H1428   1.070   .     S
C1338  H1429   1.071   .     S
C1339  C1340   1.390   .     D
C1339  C1344   1.390   .     S
C1340  C1341   1.381   .     S
C1340  H1430   1.070   .     S
C1341  C1342   1.389   .     D
C1341  H1431   1.071   .     S
C1342  C1343   1.388   .     S
C1342  N1407   1.429   .     S
C1343  C1344   1.383   .     D
C1343  H1432   1.071   .     S
C1344  H1433   1.070   .     S
C1345  C1346   1.387   .     D
C1345  C1350   1.386   .     S
C1346  C1347   1.381   .     S
C1346  H1434   1.071   .     S
C1347  C1348   1.385   .     D
C1347  H1435   1.071   .     S
C1348  C1349   1.395   .     S
C1348  N1351   1.422   .     S
C1349  C1350   1.382   .     D
C1349  H1436   1.067   .     S
C1350  H1437   1.071   .     S
N1351  C1352   1.286   .     D
C1352  C1353   1.461   .     S
C1352  H1438   1.070   .     S
C1353  C1354   1.387   .     D
C1353  C1358   1.390   .     S
C1354  C1355   1.382   .     S
C1354  H1439   1.072   .     S
C1355  C1356   1.390   .     D
C1355  H1440   1.072   .     S
C1356  C1357   1.390   .     S
C1356  C1359   1.468   .     S
C1357  C1358   1.382   .     D
C1357  H1441   1.071   .     S
C1358  H1442   1.071   .     S
C1359  C1360   1.390   .     D
C1359  C1364   1.391   .     S
C1360  C1361   1.382   .     S
C1360  H1443   1.070   .     S
C1361  C1362   1.390   .     D
C1361  H1444   1.071   .     S
C1362  C1363   1.389   .     S
C1363  C1364   1.382   .     D
C1363  H1445   1.071   .     S
C1364  H1446   1.070   .     S
C1365  C1366   1.385   .     S
C1365  C1370   1.386   .     D
C1366  C1367   1.382   .     D
C1366  H1447   1.071   .     S
C1367  C1368   1.386   .     S
C1367  H1448   1.070   .     S
C1368  C1369   1.395   .     D
C1368  N1371   1.423   .     S
C1369  C1370   1.382   .     S
C1369  H1449   1.067   .     S
C1370  H1450   1.071   .     S
N1371  C1372   1.286   .     D
C1372  C1373   1.460   .     S
C1372  H1451   1.068   .     S
C1373  C1374   1.387   .     S
C1373  C1378   1.390   .     D
C1374  C1375   1.382   .     D
C1374  H1452   1.072   .     S
C1375  C1376   1.390   .     S
C1375  H1453   1.071   .     S
C1376  C1377   1.390   .     D
C1376  C1379   1.468   .     S
C1377  C1378   1.382   .     S
C1377  H1454   1.071   .     S
C1378  H1455   1.071   .     S
C1379  C1380   1.391   .     S
C1379  C1384   1.391   .     D
C1380  C1381   1.381   .     D
C1380  H1456   1.071   .     S
C1381  C1382   1.388   .     S
C1381  H1457   1.071   .     S
C1382  C1383   1.389   .     D
C1383  C1384   1.382   .     S
C1383  H1458   1.071   .     S
C1384  H1459   1.070   .     S
C1385  C1386   1.371   .     S
C1385  C1389   1.357   .     D
C1385  H1460   1.071   .     S
C1386  N1387   1.337   .     S
C1386  C1393   1.405   .     D
N1387  C1388   1.336   .     D
N1387  Cu3983  1.872   .     S
C1388  C1389   1.372   .     S
C1388  C1390   1.406   .     S
C1389  H1461   1.070   .     S
C1390  C1391   1.404   .     D
C1391  C3674   1.373   .     S
C1391  N3921   1.337   .     S
C1392  H1462   1.070   .     S
C1392  C3673   1.373   .     S
C1392  C3674   1.356   .     D
C1393  C1394   1.403   .     S
C1394  C1395   1.372   .     S
C1394  N3922   1.334   .     D
C1395  H1463   1.070   .     S
C1395  C3677   1.358   .     D
C1396  C1397   1.372   .     S
C1396  C1400   1.356   .     D
C1396  H1464   1.071   .     S
C1397  N1398   1.336   .     D
C1397  C1404   1.406   .     S
N1398  C1399   1.337   .     S
N1398  Cu3976  1.873   .     S
C1399  C1400   1.372   .     S
C1399  C1401   1.405   .     D
C1400  H1465   1.071   .     S
C1401  C1402   1.405   .     S
C1402  C3685   1.373   .     S
C1402  N3945   1.336   .     D
C1403  H1466   1.071   .     S
C1403  C3684   1.373   .     S
C1403  C3685   1.356   1_655 D
C1404  C1405   1.405   .     D
C1405  C1406   1.372   .     S
C1405  N3946   1.336   .     S
C1406  H1467   1.070   .     S
C1406  C3688   1.356   1_455 D
C1468  C1469   1.386   .     D
C1468  C1473   1.386   .     S
C1469  C1470   1.383   .     S
C1469  H1571   1.071   .     S
C1470  C1471   1.385   .     D
C1470  H1572   1.071   .     S
C1471  C1472   1.393   .     S
C1471  N1474   1.421   .     S
C1472  C1473   1.381   .     D
C1472  H1573   1.070   .     S
C1473  H1574   1.071   .     S
N1474  C1475   1.286   .     D
C1475  C1476   1.459   .     S
C1475  H1575   1.071   .     S
C1476  C1477   1.386   .     D
C1476  C1481   1.390   .     S
C1477  C1478   1.381   .     S
C1477  H1576   1.071   .     S
C1478  C1479   1.392   .     D
C1478  H1577   1.070   .     S
C1479  C1480   1.391   .     S
C1479  C1482   1.472   .     S
C1480  C1481   1.383   .     D
C1480  H1578   1.071   .     S
C1481  H1579   1.071   .     S
C1482  C1483   1.391   .     D
C1482  C1487   1.392   .     S
C1483  C1484   1.380   .     S
C1483  H1580   1.071   .     S
C1484  C1485   1.389   .     D
C1484  H1581   1.071   .     S
C1485  C1486   1.389   .     S
C1485  N3964   1.431   .     S
C1486  C1487   1.382   .     D
C1486  H1582   1.070   .     S
C1487  H1583   1.069   .     S
C1488  C1489   1.386   .     D
C1488  C1493   1.386   .     S
C1489  C1490   1.381   .     S
C1489  H1584   1.072   .     S
C1490  C1491   1.385   .     D
C1490  H1585   1.070   .     S
C1491  C1492   1.395   .     S
C1491  N1494   1.422   .     S
C1492  C1493   1.383   .     D
C1492  H1586   1.067   .     S
C1493  H1587   1.071   .     S
N1494  C1495   1.285   .     D
C1495  C1496   1.460   .     S
C1495  H1588   1.068   .     S
C1496  C1497   1.387   .     D
C1496  C1501   1.389   .     S
C1497  C1498   1.382   .     S
C1497  H1589   1.072   .     S
C1498  C1499   1.390   .     D
C1498  H1590   1.071   .     S
C1499  C1500   1.391   .     S
C1499  C1502   1.468   .     S
C1500  C1501   1.382   .     D
C1500  H1591   1.070   .     S
C1501  H1592   1.071   .     S
C1502  C1503   1.390   .     D
C1502  C1507   1.390   .     S
C1503  C1504   1.381   .     S
C1503  H1593   1.070   .     S
C1504  C1505   1.389   .     D
C1504  H1594   1.071   .     S
C1505  C1506   1.388   .     S
C1505  N1570   1.429   .     S
C1506  C1507   1.383   .     D
C1506  H1595   1.071   .     S
C1507  H1596   1.070   .     S
C1508  C1509   1.387   .     D
C1508  C1513   1.386   .     S
C1509  C1510   1.381   .     S
C1509  H1597   1.071   .     S
C1510  C1511   1.385   .     D
C1510  H1598   1.071   .     S
C1511  C1512   1.395   .     S
C1511  N1514   1.422   .     S
C1512  C1513   1.382   .     D
C1512  H1599   1.067   .     S
C1513  H1600   1.071   .     S
N1514  C1515   1.286   .     D
C1515  C1516   1.461   .     S
C1515  H1601   1.070   .     S
C1516  C1517   1.387   .     D
C1516  C1521   1.390   .     S
C1517  C1518   1.382   .     S
C1517  H1602   1.072   .     S
C1518  C1519   1.390   .     D
C1518  H1603   1.072   .     S
C1519  C1520   1.390   .     S
C1519  C1522   1.468   .     S
C1520  C1521   1.382   .     D
C1520  H1604   1.071   .     S
C1521  H1605   1.071   .     S
C1522  C1523   1.390   .     D
C1522  C1527   1.391   .     S
C1523  C1524   1.382   .     S
C1523  H1606   1.070   .     S
C1524  C1525   1.390   .     D
C1524  H1607   1.071   .     S
C1525  C1526   1.389   .     S
C1526  C1527   1.382   .     D
C1526  H1608   1.071   .     S
C1527  H1609   1.070   .     S
C1528  C1529   1.385   .     S
C1528  C1533   1.386   .     D
C1529  C1530   1.382   .     D
C1529  H1610   1.071   .     S
C1530  C1531   1.386   .     S
C1530  H1611   1.070   .     S
C1531  C1532   1.395   .     D
C1531  N1534   1.423   .     S
C1532  C1533   1.382   .     S
C1532  H1612   1.067   .     S
C1533  H1613   1.071   .     S
N1534  C1535   1.286   .     D
C1535  C1536   1.460   .     S
C1535  H1614   1.068   .     S
C1536  C1537   1.387   .     S
C1536  C1541   1.390   .     D
C1537  C1538   1.382   .     D
C1537  H1615   1.072   .     S
C1538  C1539   1.390   .     S
C1538  H1616   1.071   .     S
C1539  C1540   1.390   .     D
C1539  C1542   1.468   .     S
C1540  C1541   1.382   .     S
C1540  H1617   1.071   .     S
C1541  H1618   1.071   .     S
C1542  C1543   1.391   .     S
C1542  C1547   1.391   .     D
C1543  C1544   1.381   .     D
C1543  H1619   1.071   .     S
C1544  C1545   1.388   .     S
C1544  H1620   1.071   .     S
C1545  C1546   1.389   .     D
C1546  C1547   1.382   .     S
C1546  H1621   1.071   .     S
C1547  H1622   1.070   .     S
C1548  C1549   1.371   .     S
C1548  C1552   1.357   .     D
C1548  H1623   1.071   .     S
C1549  N1550   1.337   .     D
C1549  C1556   1.405   .     S
N1550  C1551   1.336   .     S
N1550  Cu3981  1.872   .     S
C1551  C1552   1.372   .     S
C1551  C1553   1.406   .     D
C1552  H1624   1.070   .     S
C1553  C1554   1.404   .     S
C1554  C3837   1.373   .     S
C1554  N3927   1.337   .     D
C1555  H1625   1.070   .     S
C1555  C3836   1.373   .     S
C1555  C3837   1.356   .     D
C1556  C1557   1.403   .     D
C1557  C1558   1.372   .     S
C1557  N3928   1.334   .     S
C1558  H1626   1.070   .     S
C1558  C3840   1.358   .     D
C1559  C1560   1.372   .     S
C1559  C1563   1.356   .     D
C1559  H1627   1.071   .     S
C1560  N1561   1.336   .     D
C1560  C1567   1.406   .     S
N1561  C1562   1.337   .     S
N1561  Cu3973  1.873   1_655 S
C1562  C1563   1.372   .     S
C1562  C1564   1.405   .     D
C1563  H1628   1.071   .     S
C1564  C1565   1.405   .     S
C1565  C3848   1.373   .     S
C1565  N3951   1.336   1_655 D
C1566  H1629   1.071   .     S
C1566  C3847   1.373   .     S
C1566  C3848   1.356   1_455 D
C1567  C1568   1.405   .     D
C1568  C1569   1.372   .     S
C1568  N3952   1.336   1_655 S
C1569  H1630   1.070   .     S
C1569  C3851   1.356   1_655 D
C1631  C1632   1.386   .     D
C1631  C1636   1.386   .     S
C1632  C1633   1.383   .     S
C1632  H1734   1.071   .     S
C1633  C1634   1.385   .     D
C1633  H1735   1.071   .     S
C1634  C1635   1.393   .     S
C1634  N1637   1.421   .     S
C1635  C1636   1.381   .     D
C1635  H1736   1.070   .     S
C1636  H1737   1.071   .     S
N1637  C1638   1.286   .     D
C1638  C1639   1.459   .     S
C1638  H1738   1.071   .     S
C1639  C1640   1.386   .     D
C1639  C1644   1.390   .     S
C1640  C1641   1.381   .     S
C1640  H1739   1.071   .     S
C1641  C1642   1.392   .     D
C1641  H1740   1.070   .     S
C1642  C1643   1.391   .     S
C1642  C1645   1.472   .     S
C1643  C1644   1.383   .     D
C1643  H1741   1.071   .     S
C1644  H1742   1.071   .     S
C1645  C1646   1.391   .     D
C1645  C1650   1.392   .     S
C1646  C1647   1.380   .     S
C1646  H1743   1.071   .     S
C1647  C1648   1.389   .     D
C1647  H1744   1.071   .     S
C1648  C1649   1.389   .     S
C1648  N3963   1.431   .     S
C1649  C1650   1.382   .     D
C1649  H1745   1.070   .     S
C1650  H1746   1.069   .     S
C1651  C1652   1.386   .     D
C1651  C1656   1.386   .     S
C1652  C1653   1.381   .     S
C1652  H1747   1.072   .     S
C1653  C1654   1.385   .     D
C1653  H1748   1.070   .     S
C1654  C1655   1.395   .     S
C1654  N1657   1.422   .     S
C1655  C1656   1.383   .     D
C1655  H1749   1.067   .     S
C1656  H1750   1.071   .     S
N1657  C1658   1.285   .     D
C1658  C1659   1.460   .     S
C1658  H1751   1.068   .     S
C1659  C1660   1.387   .     D
C1659  C1664   1.389   .     S
C1660  C1661   1.382   .     S
C1660  H1752   1.072   .     S
C1661  C1662   1.390   .     D
C1661  H1753   1.071   .     S
C1662  C1663   1.391   .     S
C1662  C1665   1.468   .     S
C1663  C1664   1.382   .     D
C1663  H1754   1.070   .     S
C1664  H1755   1.071   .     S
C1665  C1666   1.390   .     D
C1665  C1670   1.390   .     S
C1666  C1667   1.381   .     S
C1666  H1756   1.070   .     S
C1667  C1668   1.389   .     D
C1667  H1757   1.071   .     S
C1668  C1669   1.388   .     S
C1668  N1733   1.429   .     S
C1669  C1670   1.383   .     D
C1669  H1758   1.071   .     S
C1670  H1759   1.070   .     S
C1671  C1672   1.387   .     D
C1671  C1676   1.386   .     S
C1672  C1673   1.381   .     S
C1672  H1760   1.071   .     S
C1673  C1674   1.385   .     D
C1673  H1761   1.071   .     S
C1674  C1675   1.395   .     S
C1674  N1677   1.422   .     S
C1675  C1676   1.382   .     D
C1675  H1762   1.067   .     S
C1676  H1763   1.071   .     S
N1677  C1678   1.286   .     D
C1678  C1679   1.461   .     S
C1678  H1764   1.070   .     S
C1679  C1680   1.387   .     D
C1679  C1684   1.390   .     S
C1680  C1681   1.382   .     S
C1680  H1765   1.072   .     S
C1681  C1682   1.390   .     D
C1681  H1766   1.072   .     S
C1682  C1683   1.390   .     S
C1682  C1685   1.468   .     S
C1683  C1684   1.382   .     D
C1683  H1767   1.071   .     S
C1684  H1768   1.071   .     S
C1685  C1686   1.390   .     D
C1685  C1690   1.391   .     S
C1686  C1687   1.382   .     S
C1686  H1769   1.070   .     S
C1687  C1688   1.390   .     D
C1687  H1770   1.071   .     S
C1688  C1689   1.389   .     S
C1689  C1690   1.382   .     D
C1689  H1771   1.071   .     S
C1690  H1772   1.070   .     S
C1691  C1692   1.385   .     D
C1691  C1696   1.386   .     S
C1692  C1693   1.382   .     S
C1692  H1773   1.071   .     S
C1693  C1694   1.386   .     D
C1693  H1774   1.070   .     S
C1694  C1695   1.395   .     S
C1694  N1697   1.423   .     S
C1695  C1696   1.382   .     D
C1695  H1775   1.067   .     S
C1696  H1776   1.071   .     S
N1697  C1698   1.286   .     D
C1698  C1699   1.460   .     S
C1698  H1777   1.068   .     S
C1699  C1700   1.387   .     D
C1699  C1704   1.390   .     S
C1700  C1701   1.382   .     S
C1700  H1778   1.072   .     S
C1701  C1702   1.390   .     D
C1701  H1779   1.071   .     S
C1702  C1703   1.390   .     S
C1702  C1705   1.468   .     S
C1703  C1704   1.382   .     D
C1703  H1780   1.071   .     S
C1704  H1781   1.071   .     S
C1705  C1706   1.391   .     D
C1705  C1710   1.391   .     S
C1706  C1707   1.381   .     S
C1706  H1782   1.071   .     S
C1707  C1708   1.388   .     D
C1707  H1783   1.071   .     S
C1708  C1709   1.389   .     S
C1709  C1710   1.382   .     D
C1709  H1784   1.071   .     S
C1710  H1785   1.070   .     S
C1711  C1712   1.371   .     S
C1711  C1715   1.357   .     D
C1711  H1786   1.071   .     S
C1712  N1713   1.337   .     D
C1712  C1719   1.405   .     S
N1713  C1714   1.336   .     S
N1713  Cu3982  1.872   .     S
C1714  C1715   1.372   .     S
C1714  C1716   1.406   .     D
C1715  H1787   1.070   .     S
C1716  C1717   1.404   .     S
C1717  C3348   1.373   .     S
C1717  N3923   1.337   .     D
C1718  H1788   1.070   .     S
C1718  C3347   1.373   .     S
C1718  C3348   1.356   .     D
C1719  C1720   1.403   .     D
C1720  C1721   1.372   .     S
C1720  N3924   1.334   .     S
C1721  H1789   1.070   .     S
C1721  C3351   1.358   .     D
C1722  C1723   1.372   .     S
C1722  C1726   1.356   .     D
C1722  H1790   1.071   .     S
C1723  N1724   1.336   .     D
C1723  C1730   1.406   .     S
N1724  C1725   1.337   .     S
N1724  Cu3975  1.873   .     S
C1725  C1726   1.372   .     S
C1725  C1727   1.405   .     D
C1726  H1791   1.071   .     S
C1727  C1728   1.405   .     S
C1728  C3359   1.373   .     S
C1728  N3947   1.336   .     D
C1729  H1792   1.071   .     S
C1729  C3358   1.373   .     S
C1729  C3359   1.356   1_655 D
C1730  C1731   1.405   .     D
C1731  C1732   1.372   .     S
C1731  N3948   1.336   .     S
C1732  H1793   1.070   .     S
C1732  C3362   1.356   1_455 D
C1794  C1795   1.386   .     S
C1794  C1799   1.386   .     D
C1795  C1796   1.383   .     D
C1795  H1897   1.071   .     S
C1796  C1797   1.385   .     S
C1796  H1898   1.071   .     S
C1797  C1798   1.393   .     D
C1797  N1800   1.421   .     S
C1798  C1799   1.381   .     S
C1798  H1899   1.070   .     S
C1799  H1900   1.071   .     S
N1800  C1801   1.286   .     D
C1801  C1802   1.459   .     S
C1801  H1901   1.071   .     S
C1802  C1803   1.386   .     S
C1802  C1807   1.390   .     D
C1803  C1804   1.381   .     D
C1803  H1902   1.071   .     S
C1804  C1805   1.392   .     S
C1804  H1903   1.070   .     S
C1805  C1806   1.391   .     D
C1805  C1808   1.472   .     S
C1806  C1807   1.383   .     S
C1806  H1904   1.071   .     S
C1807  H1905   1.071   .     S
C1808  C1809   1.391   .     S
C1808  C1813   1.392   .     D
C1809  C1810   1.380   .     D
C1809  H1906   1.071   .     S
C1810  C1811   1.389   .     S
C1810  H1907   1.071   .     S
C1811  C1812   1.389   .     D
C1811  N3961   1.431   .     S
C1812  C1813   1.382   .     S
C1812  H1908   1.070   .     S
C1813  H1909   1.069   .     S
C1814  C1815   1.386   .     D
C1814  C1819   1.386   .     S
C1815  C1816   1.381   .     S
C1815  H1910   1.072   .     S
C1816  C1817   1.385   .     D
C1816  H1911   1.070   .     S
C1817  C1818   1.395   .     S
C1817  N1820   1.422   .     S
C1818  C1819   1.383   .     D
C1818  H1912   1.067   .     S
C1819  H1913   1.071   .     S
N1820  C1821   1.285   .     D
C1821  C1822   1.460   .     S
C1821  H1914   1.068   .     S
C1822  C1823   1.387   .     D
C1822  C1827   1.389   .     S
C1823  C1824   1.382   .     S
C1823  H1915   1.072   .     S
C1824  C1825   1.390   .     D
C1824  H1916   1.071   .     S
C1825  C1826   1.391   .     S
C1825  C1828   1.468   .     S
C1826  C1827   1.382   .     D
C1826  H1917   1.070   .     S
C1827  H1918   1.071   .     S
C1828  C1829   1.390   .     D
C1828  C1833   1.390   .     S
C1829  C1830   1.381   .     S
C1829  H1919   1.070   .     S
C1830  C1831   1.389   .     D
C1830  H1920   1.071   .     S
C1831  C1832   1.388   .     S
C1831  N1896   1.429   .     S
C1832  C1833   1.383   .     D
C1832  H1921   1.071   .     S
C1833  H1922   1.070   .     S
C1834  C1835   1.387   .     D
C1834  C1839   1.386   .     S
C1835  C1836   1.381   .     S
C1835  H1923   1.071   .     S
C1836  C1837   1.385   .     D
C1836  H1924   1.071   .     S
C1837  C1838   1.395   .     S
C1837  N1840   1.422   .     S
C1838  C1839   1.382   .     D
C1838  H1925   1.067   .     S
C1839  H1926   1.071   .     S
N1840  C1841   1.286   .     D
C1841  C1842   1.461   .     S
C1841  H1927   1.070   .     S
C1842  C1843   1.387   .     D
C1842  C1847   1.390   .     S
C1843  C1844   1.382   .     S
C1843  H1928   1.072   .     S
C1844  C1845   1.390   .     D
C1844  H1929   1.072   .     S
C1845  C1846   1.390   .     S
C1845  C1848   1.468   .     S
C1846  C1847   1.382   .     D
C1846  H1930   1.071   .     S
C1847  H1931   1.071   .     S
C1848  C1849   1.390   .     D
C1848  C1853   1.391   .     S
C1849  C1850   1.382   .     S
C1849  H1932   1.070   .     S
C1850  C1851   1.390   .     D
C1850  H1933   1.071   .     S
C1851  C1852   1.389   .     S
C1852  C1853   1.382   .     D
C1852  H1934   1.071   .     S
C1853  H1935   1.070   .     S
C1854  C1855   1.385   .     D
C1854  C1859   1.386   .     S
C1855  C1856   1.382   .     S
C1855  H1936   1.071   .     S
C1856  C1857   1.386   .     D
C1856  H1937   1.070   .     S
C1857  C1858   1.395   .     S
C1857  N1860   1.423   .     S
C1858  C1859   1.382   .     D
C1858  H1938   1.067   .     S
C1859  H1939   1.071   .     S
N1860  C1861   1.286   .     D
C1861  C1862   1.460   .     S
C1861  H1940   1.068   .     S
C1862  C1863   1.387   .     D
C1862  C1867   1.390   .     S
C1863  C1864   1.382   .     S
C1863  H1941   1.072   .     S
C1864  C1865   1.390   .     D
C1864  H1942   1.071   .     S
C1865  C1866   1.390   .     S
C1865  C1868   1.468   .     S
C1866  C1867   1.382   .     D
C1866  H1943   1.071   .     S
C1867  H1944   1.071   .     S
C1868  C1869   1.391   .     D
C1868  C1873   1.391   .     S
C1869  C1870   1.381   .     S
C1869  H1945   1.071   .     S
C1870  C1871   1.388   .     D
C1870  H1946   1.071   .     S
C1871  C1872   1.389   .     S
C1872  C1873   1.382   .     D
C1872  H1947   1.071   .     S
C1873  H1948   1.070   .     S
C1874  C1875   1.371   .     S
C1874  C1878   1.357   .     D
C1874  H1949   1.071   .     S
C1875  N1876   1.337   .     D
C1875  C1882   1.405   .     S
N1876  C1877   1.336   .     S
N1876  Cu3984  1.872   .     S
C1877  C1878   1.372   .     S
C1877  C1879   1.406   .     D
C1878  H1950   1.070   .     S
C1879  C1880   1.404   .     S
C1880  C3511   1.373   .     S
C1880  N3925   1.337   .     D
C1881  H1951   1.070   .     S
C1881  C3510   1.373   .     S
C1881  C3511   1.356   .     D
C1882  C1883   1.403   .     D
C1883  C1884   1.372   .     S
C1883  N3926   1.334   .     S
C1884  H1952   1.070   .     S
C1884  C3514   1.358   .     D
C1885  C1886   1.372   .     S
C1885  C1889   1.356   .     D
C1885  H1953   1.071   .     S
C1886  N1887   1.336   .     S
C1886  C1893   1.406   .     D
N1887  C1888   1.337   .     D
N1887  Cu3974  1.873   1_655 S
C1888  C1889   1.372   .     S
C1888  C1890   1.405   .     S
C1889  H1954   1.071   .     S
C1890  C1891   1.405   .     D
C1891  C3522   1.373   .     S
C1891  N3949   1.336   1_655 S
C1892  H1955   1.071   .     S
C1892  C3521   1.373   .     S
C1892  C3522   1.356   1_455 D
C1893  C1894   1.405   .     S
C1894  C1895   1.372   .     S
C1894  N3950   1.336   1_655 D
C1895  H1956   1.070   .     S
C1895  C3525   1.356   1_655 D
C1957  C1958   1.386   .     D
C1957  C1962   1.386   .     S
C1957  C3023   1.465   .     S
C1958  C1959   1.383   .     S
C1958  H2060   1.071   .     S
C1959  C1960   1.385   .     D
C1959  H2061   1.071   .     S
C1960  C1961   1.393   .     S
C1960  N1963   1.421   .     S
C1961  C1962   1.381   .     D
C1961  H2062   1.070   .     S
C1962  H2063   1.071   .     S
N1963  C1964   1.286   .     D
C1964  C1965   1.459   .     S
C1964  H2064   1.071   .     S
C1965  C1966   1.386   .     D
C1965  C1970   1.390   .     S
C1966  C1967   1.381   .     S
C1966  H2065   1.071   .     S
C1967  C1968   1.392   .     D
C1967  H2066   1.070   .     S
C1968  C1969   1.391   .     S
C1968  C1971   1.472   .     S
C1969  C1970   1.383   .     D
C1969  H2067   1.071   .     S
C1970  H2068   1.071   .     S
C1971  C1972   1.391   .     D
C1971  C1976   1.392   .     S
C1972  C1973   1.380   .     S
C1972  H2069   1.071   .     S
C1973  C1974   1.389   .     D
C1973  H2070   1.071   .     S
C1974  C1975   1.389   .     S
C1974  N3965   1.431   .     S
C1975  C1976   1.382   .     D
C1975  H2071   1.070   .     S
C1976  H2072   1.069   .     S
C1977  C1978   1.386   .     S
C1977  C1982   1.386   .     D
C1977  C2694   1.469   .     S
C1978  C1979   1.381   .     D
C1978  H2073   1.072   .     S
C1979  C1980   1.385   .     S
C1979  H2074   1.070   .     S
C1980  C1981   1.395   .     D
C1980  N1983   1.422   .     S
C1981  C1982   1.383   .     S
C1981  H2075   1.067   .     S
C1982  H2076   1.071   .     S
N1983  C1984   1.285   .     D
C1984  C1985   1.460   .     S
C1984  H2077   1.068   .     S
C1985  C1986   1.387   .     S
C1985  C1990   1.389   .     D
C1986  C1987   1.382   .     D
C1986  H2078   1.072   .     S
C1987  C1988   1.390   .     S
C1987  H2079   1.071   .     S
C1988  C1989   1.391   .     D
C1988  C1991   1.468   .     S
C1989  C1990   1.382   .     S
C1989  H2080   1.070   .     S
C1990  H2081   1.071   .     S
C1991  C1992   1.390   .     S
C1991  C1996   1.390   .     D
C1992  C1993   1.381   .     D
C1992  H2082   1.070   .     S
C1993  C1994   1.389   .     S
C1993  H2083   1.071   .     S
C1994  C1995   1.388   .     D
C1994  N2059   1.429   .     S
C1995  C1996   1.383   .     S
C1995  H2084   1.071   .     S
C1996  H2085   1.070   .     S
C1997  C1998   1.387   .     D
C1997  C2002   1.386   .     S
C1997  C2868   1.469   .     S
C1998  C1999   1.381   .     S
C1998  H2086   1.071   .     S
C1999  C2000   1.385   .     D
C1999  H2087   1.071   .     S
C2000  C2001   1.395   .     S
C2000  N2003   1.422   .     S
C2001  C2002   1.382   .     D
C2001  H2088   1.067   .     S
C2002  H2089   1.071   .     S
N2003  C2004   1.286   .     D
C2004  C2005   1.461   .     S
C2004  H2090   1.070   .     S
C2005  C2006   1.387   .     D
C2005  C2010   1.390   .     S
C2006  C2007   1.382   .     S
C2006  H2091   1.072   .     S
C2007  C2008   1.390   .     D
C2007  H2092   1.072   .     S
C2008  C2009   1.390   .     S
C2008  C2011   1.468   .     S
C2009  C2010   1.382   .     D
C2009  H2093   1.071   .     S
C2010  H2094   1.071   .     S
C2011  C2012   1.390   .     D
C2011  C2016   1.391   .     S
C2012  C2013   1.382   .     S
C2012  H2095   1.070   .     S
C2013  C2014   1.390   .     D
C2013  H2096   1.071   .     S
C2014  C2015   1.389   .     S
C2014  N2874   1.428   .     S
C2015  C2016   1.382   .     D
C2015  H2097   1.071   .     S
C2016  H2098   1.070   .     S
C2017  C2018   1.385   .     D
C2017  C2022   1.386   .     S
C2017  C3197   1.469   .     S
C2018  C2019   1.382   .     S
C2018  H2099   1.071   .     S
C2019  C2020   1.386   .     D
C2019  H2100   1.070   .     S
C2020  C2021   1.395   .     S
C2020  N2023   1.423   .     S
C2021  C2022   1.382   .     D
C2021  H2101   1.067   .     S
C2022  H2102   1.071   .     S
N2023  C2024   1.286   .     D
C2024  C2025   1.460   .     S
C2024  H2103   1.068   .     S
C2025  C2026   1.387   .     D
C2025  C2030   1.390   .     S
C2026  C2027   1.382   .     S
C2026  H2104   1.072   .     S
C2027  C2028   1.390   .     D
C2027  H2105   1.071   .     S
C2028  C2029   1.390   .     S
C2028  C2031   1.468   .     S
C2029  C2030   1.382   .     D
C2029  H2106   1.071   .     S
C2030  H2107   1.071   .     S
C2031  C2032   1.391   .     D
C2031  C2036   1.391   .     S
C2032  C2033   1.381   .     S
C2032  H2108   1.071   .     S
C2033  C2034   1.388   .     D
C2033  H2109   1.071   .     S
C2034  C2035   1.389   .     S
C2034  N3852   1.428   .     S
C2035  C2036   1.382   .     D
C2035  H2110   1.071   .     S
C2036  H2111   1.070   .     S
C2037  C2038   1.371   .     S
C2037  C2041   1.357   .     D
C2037  H2112   1.071   .     S
C2038  N2039   1.337   .     S
C2038  C2045   1.405   .     D
N2039  C2040   1.336   .     D
N2039  Cu3986  1.872   .     S
C2040  C2041   1.372   .     S
C2040  C2042   1.406   .     S
C2041  H2113   1.070   .     S
C2042  C2043   1.404   .     D
C2042  C3281   1.469   .     S
C2043  N3931   1.337   .     S
C2044  H2114   1.070   .     S
C2045  C2046   1.403   .     S
C2045  C3424   1.465   .     S
C2046  C2047   1.372   .     S
C2046  N3932   1.334   .     D
C2047  H2115   1.070   .     S
C2048  C2049   1.372   .     S
C2048  C2052   1.356   .     D
C2048  H2116   1.071   .     S
C2049  N2050   1.336   .     S
C2049  C2056   1.406   .     D
N2050  C2051   1.337   .     D
N2050  Cu3979  1.873   1_565 S
C2051  C2052   1.372   .     S
C2051  C2053   1.405   .     S
C2052  H2117   1.071   .     S
C2053  C2054   1.405   .     D
C2053  C3790   1.469   .     S
C2054  N3955   1.336   1_565 S
C2055  H2118   1.071   .     S
C2055  C425    1.356   1_545 D
C2056  C2057   1.405   .     S
C2056  C3647   1.469   .     S
C2057  C2058   1.372   .     S
C2057  N3956   1.336   1_565 D
C2058  H2119   1.070   .     S
C2058  C428    1.356   1_565 D
N2059  C3807   1.428   .     S
N2059  C2849   1.428   .     S
C2120  C2121   1.386   .     D
C2120  C2125   1.386   .     S
C2120  C2697   1.465   .     S
C2121  C2122   1.383   .     S
C2121  H2223   1.071   .     S
C2122  C2123   1.385   .     D
C2122  H2224   1.071   .     S
C2123  C2124   1.393   .     S
C2123  N2126   1.421   .     S
C2124  C2125   1.381   .     D
C2124  H2225   1.070   .     S
C2125  H2226   1.071   .     S
N2126  C2127   1.286   .     D
C2127  C2128   1.459   .     S
C2127  H2227   1.071   .     S
C2128  C2129   1.386   .     D
C2128  C2133   1.390   .     S
C2129  C2130   1.381   .     S
C2129  H2228   1.071   .     S
C2130  C2131   1.392   .     D
C2130  H2229   1.070   .     S
C2131  C2132   1.391   .     S
C2131  C2134   1.472   .     S
C2132  C2133   1.383   .     D
C2132  H2230   1.071   .     S
C2133  H2231   1.071   .     S
C2134  C2135   1.391   .     D
C2134  C2139   1.392   .     S
C2135  C2136   1.380   .     S
C2135  H2232   1.071   .     S
C2136  C2137   1.389   .     D
C2136  H2233   1.071   .     S
C2137  C2138   1.389   .     S
C2137  N3966   1.431   .     S
C2138  C2139   1.382   .     D
C2138  H2234   1.070   .     S
C2139  H2235   1.069   .     S
C2140  C2141   1.386   .     S
C2140  C2145   1.386   .     D
C2140  C3020   1.469   .     S
C2141  C2142   1.381   .     D
C2141  H2236   1.072   .     S
C2142  C2143   1.385   .     S
C2142  H2237   1.070   .     S
C2143  C2144   1.395   .     D
C2143  N2146   1.422   .     S
C2144  C2145   1.383   .     S
C2144  H2238   1.067   .     S
C2145  H2239   1.071   .     S
N2146  C2147   1.285   .     D
C2147  C2148   1.460   .     S
C2147  H2240   1.068   .     S
C2148  C2149   1.387   .     S
C2148  C2153   1.389   .     D
C2149  C2150   1.382   .     D
C2149  H2241   1.072   .     S
C2150  C2151   1.390   .     S
C2150  H2242   1.071   .     S
C2151  C2152   1.391   .     D
C2151  C2154   1.468   .     S
C2152  C2153   1.382   .     S
C2152  H2243   1.070   .     S
C2153  H2244   1.071   .     S
C2154  C2155   1.390   .     S
C2154  C2159   1.390   .     D
C2155  C2156   1.381   .     D
C2155  H2245   1.070   .     S
C2156  C2157   1.389   .     S
C2156  H2246   1.071   .     S
C2157  C2158   1.388   .     D
C2157  N2222   1.429   .     S
C2158  C2159   1.383   .     S
C2158  H2247   1.071   .     S
C2159  H2248   1.070   .     S
C2160  C2161   1.387   .     S
C2160  C2165   1.386   .     D
C2160  C3194   1.469   .     S
C2161  C2162   1.381   .     D
C2161  H2249   1.071   .     S
C2162  C2163   1.385   .     S
C2162  H2250   1.071   .     S
C2163  C2164   1.395   .     D
C2163  N2166   1.422   .     S
C2164  C2165   1.382   .     S
C2164  H2251   1.067   .     S
C2165  H2252   1.071   .     S
N2166  C2167   1.286   .     D
C2167  C2168   1.461   .     S
C2167  H2253   1.070   .     S
C2168  C2169   1.387   .     S
C2168  C2173   1.390   .     D
C2169  C2170   1.382   .     D
C2169  H2254   1.072   .     S
C2170  C2171   1.390   .     S
C2170  H2255   1.072   .     S
C2171  C2172   1.390   .     D
C2171  C2174   1.468   .     S
C2172  C2173   1.382   .     S
C2172  H2256   1.071   .     S
C2173  H2257   1.071   .     S
C2174  C2175   1.390   .     D
C2174  C2179   1.391   .     S
C2175  C2176   1.382   .     S
C2175  H2258   1.070   .     S
C2176  C2177   1.390   .     D
C2176  H2259   1.071   .     S
C2177  C2178   1.389   .     S
C2177  N3200   1.428   .     S
C2178  C2179   1.382   .     D
C2178  H2260   1.071   .     S
C2179  H2261   1.070   .     S
C2180  C2181   1.385   .     D
C2180  C2185   1.386   .     S
C2180  C2871   1.469   .     S
C2181  C2182   1.382   .     S
C2181  H2262   1.071   .     S
C2182  C2183   1.386   .     D
C2182  H2263   1.070   .     S
C2183  C2184   1.395   .     S
C2183  N2186   1.423   .     S
C2184  C2185   1.382   .     D
C2184  H2264   1.067   .     S
C2185  H2265   1.071   .     S
N2186  C2187   1.286   .     D
C2187  C2188   1.460   .     S
C2187  H2266   1.068   .     S
C2188  C2189   1.387   .     D
C2188  C2193   1.390   .     S
C2189  C2190   1.382   .     S
C2189  H2267   1.072   .     S
C2190  C2191   1.390   .     D
C2190  H2268   1.071   .     S
C2191  C2192   1.390   .     S
C2191  C2194   1.468   .     S
C2192  C2193   1.382   .     D
C2192  H2269   1.071   .     S
C2193  H2270   1.071   .     S
C2194  C2195   1.391   .     D
C2194  C2199   1.391   .     S
C2195  C2196   1.381   .     S
C2195  H2271   1.071   .     S
C2196  C2197   1.388   .     D
C2196  H2272   1.071   .     S
C2197  C2198   1.389   .     S
C2197  N3363   1.428   .     S
C2198  C2199   1.382   .     D
C2198  H2273   1.071   .     S
C2199  H2274   1.070   .     S
C2200  C2201   1.371   .     S
C2200  C2204   1.357   .     D
C2200  H2275   1.071   .     S
C2201  N2202   1.337   .     D
C2201  C2208   1.405   .     S
N2202  C2203   1.336   .     S
N2202  Cu3988  1.872   .     S
C2203  C2204   1.372   .     S
C2203  C2205   1.406   .     D
C2204  H2276   1.070   .     S
C2205  C2206   1.404   .     S
C2205  C3770   1.469   .     S
C2206  N3933   1.337   .     D
C2207  H2277   1.070   .     S
C2208  C2209   1.403   .     D
C2208  C3587   1.465   .     S
C2209  C2210   1.372   .     S
C2209  N3934   1.334   .     S
C2210  H2278   1.070   .     S
C2211  C2212   1.372   .     S
C2211  C2215   1.356   .     D
C2211  H2279   1.071   .     S
C2212  N2213   1.336   .     D
C2212  C2219   1.406   .     S
N2213  C2214   1.337   .     S
N2213  Cu3978  1.873   .     S
C2214  C2215   1.372   .     S
C2214  C2216   1.405   .     D
C2215  H2280   1.071   .     S
C2216  C2217   1.405   .     S
C2216  C3301   1.469   .     S
C2217  N3957   1.336   .     D
C2218  H2281   1.071   .     S
C2218  C588    1.356   1_565 D
C2219  C2220   1.405   .     D
C2219  C3484   1.469   .     S
C2220  C2221   1.372   .     S
C2220  N3958   1.336   .     S
C2221  H2282   1.070   .     S
C2221  C591    1.356   1_545 D
N2222  C3318   1.428   .     S
N2222  C3175   1.428   .     S
C2283  C2284   1.386   .     S
C2283  C2288   1.386   .     D
C2283  C2860   1.465   .     S
C2284  C2285   1.383   .     D
C2284  H2386   1.071   .     S
C2285  C2286   1.385   .     S
C2285  H2387   1.071   .     S
C2286  C2287   1.393   .     D
C2286  N2289   1.421   .     S
C2287  C2288   1.381   .     S
C2287  H2388   1.070   .     S
C2288  H2389   1.071   .     S
N2289  C2290   1.286   .     D
C2290  C2291   1.459   .     S
C2290  H2390   1.071   .     S
C2291  C2292   1.386   .     S
C2291  C2296   1.390   .     D
C2292  C2293   1.381   .     D
C2292  H2391   1.071   .     S
C2293  C2294   1.392   .     S
C2293  H2392   1.070   .     S
C2294  C2295   1.391   .     D
C2294  C2297   1.472   .     S
C2295  C2296   1.383   .     S
C2295  H2393   1.071   .     S
C2296  H2394   1.071   .     S
C2297  C2298   1.391   .     S
C2297  C2302   1.392   .     D
C2298  C2299   1.380   .     D
C2298  H2395   1.071   .     S
C2299  C2300   1.389   .     S
C2299  H2396   1.071   .     S
C2300  C2301   1.389   .     D
C2300  N3967   1.431   .     S
C2301  C2302   1.382   .     S
C2301  H2397   1.070   .     S
C2302  H2398   1.069   .     S
C2303  C2304   1.386   .     D
C2303  C2308   1.386   .     S
C2303  C3183   1.469   .     S
C2304  C2305   1.381   .     S
C2304  H2399   1.072   .     S
C2305  C2306   1.385   .     D
C2305  H2400   1.070   .     S
C2306  C2307   1.395   .     S
C2306  N2309   1.422   .     S
C2307  C2308   1.383   .     D
C2307  H2401   1.067   .     S
C2308  H2402   1.071   .     S
N2309  C2310   1.285   .     D
C2310  C2311   1.460   .     S
C2310  H2403   1.068   .     S
C2311  C2312   1.387   .     D
C2311  C2316   1.389   .     S
C2312  C2313   1.382   .     S
C2312  H2404   1.072   .     S
C2313  C2314   1.390   .     D
C2313  H2405   1.071   .     S
C2314  C2315   1.391   .     S
C2314  C2317   1.468   .     S
C2315  C2316   1.382   .     D
C2315  H2406   1.070   .     S
C2316  H2407   1.071   .     S
C2317  C2318   1.390   .     D
C2317  C2322   1.390   .     S
C2318  C2319   1.381   .     S
C2318  H2408   1.070   .     S
C2319  C2320   1.389   .     D
C2319  H2409   1.071   .     S
C2320  C2321   1.388   .     S
C2320  N2385   1.429   .     S
C2321  C2322   1.383   .     D
C2321  H2410   1.071   .     S
C2322  H2411   1.070   .     S
C2323  C2324   1.387   .     S
C2323  C2328   1.386   .     D
C2323  C3031   1.469   .     S
C2324  C2325   1.381   .     D
C2324  H2412   1.071   .     S
C2325  C2326   1.385   .     S
C2325  H2413   1.071   .     S
C2326  C2327   1.395   .     D
C2326  N2329   1.422   .     S
C2327  C2328   1.382   .     S
C2327  H2414   1.067   .     S
C2328  H2415   1.071   .     S
N2329  C2330   1.286   .     D
C2330  C2331   1.461   .     S
C2330  H2416   1.070   .     S
C2331  C2332   1.387   .     S
C2331  C2336   1.390   .     D
C2332  C2333   1.382   .     D
C2332  H2417   1.072   .     S
C2333  C2334   1.390   .     S
C2333  H2418   1.072   .     S
C2334  C2335   1.390   .     D
C2334  C2337   1.468   .     S
C2335  C2336   1.382   .     S
C2335  H2419   1.071   .     S
C2336  H2420   1.071   .     S
C2337  C2338   1.390   .     S
C2337  C2342   1.391   .     D
C2338  C2339   1.382   .     D
C2338  H2421   1.070   .     S
C2339  C2340   1.390   .     S
C2339  H2422   1.071   .     S
C2340  C2341   1.389   .     D
C2340  N3037   1.428   .     S
C2341  C2342   1.382   .     S
C2341  H2423   1.071   .     S
C2342  H2424   1.070   .     S
C2343  C2344   1.385   .     S
C2343  C2348   1.386   .     D
C2343  C2708   1.469   .     S
C2344  C2345   1.382   .     D
C2344  H2425   1.071   .     S
C2345  C2346   1.386   .     S
C2345  H2426   1.070   .     S
C2346  C2347   1.395   .     D
C2346  N2349   1.423   .     S
C2347  C2348   1.382   .     S
C2347  H2427   1.067   .     S
C2348  H2428   1.071   .     S
N2349  C2350   1.286   .     D
C2350  C2351   1.460   .     S
C2350  H2429   1.068   .     S
C2351  C2352   1.387   .     S
C2351  C2356   1.390   .     D
C2352  C2353   1.382   .     D
C2352  H2430   1.072   .     S
C2353  C2354   1.390   .     S
C2353  H2431   1.071   .     S
C2354  C2355   1.390   .     D
C2354  C2357   1.468   .     S
C2355  C2356   1.382   .     S
C2355  H2432   1.071   .     S
C2356  H2433   1.071   .     S
C2357  C2358   1.391   .     S
C2357  C2362   1.391   .     D
C2358  C2359   1.381   .     D
C2358  H2434   1.071   .     S
C2359  C2360   1.388   .     S
C2359  H2435   1.071   .     S
C2360  C2361   1.389   .     D
C2360  N3689   1.428   .     S
C2361  C2362   1.382   .     S
C2361  H2436   1.071   .     S
C2362  H2437   1.070   .     S
C2363  C2364   1.371   .     S
C2363  C2367   1.357   .     D
C2363  H2438   1.071   .     S
C2364  N2365   1.337   .     D
C2364  C2371   1.405   .     S
N2365  C2366   1.336   .     S
N2365  Cu3987  1.872   .     S
C2366  C2367   1.372   .     S
C2366  C2368   1.406   .     D
C2367  H2439   1.070   .     S
C2368  C2369   1.404   .     S
C2368  C3444   1.469   .     S
C2369  N3929   1.337   .     D
C2370  H2440   1.070   .     S
C2371  C2372   1.403   .     D
C2371  C3261   1.465   .     S
C2372  C2373   1.372   .     S
C2372  N3930   1.334   .     S
C2373  H2441   1.070   .     S
C2374  C2375   1.372   .     S
C2374  C2378   1.356   .     D
C2374  H2442   1.071   .     S
C2375  N2376   1.336   .     S
C2375  C2382   1.406   .     D
N2376  C2377   1.337   .     D
N2376  Cu3980  1.873   1_565 S
C2377  C2378   1.372   .     S
C2377  C2379   1.405   .     S
C2378  H2443   1.071   .     S
C2379  C2380   1.405   .     D
C2379  C3627   1.469   .     S
C2380  N3953   1.336   1_565 S
C2381  H2444   1.071   .     S
C2381  C99     1.356   1_545 D
C2382  C2383   1.405   .     S
C2382  C3810   1.469   .     S
C2383  C2384   1.372   .     S
C2383  N3954   1.336   1_565 D
C2384  H2445   1.070   .     S
C2384  C102    1.356   1_565 D
N2385  C3644   1.428   .     S
N2385  C3012   1.428   .     S
C2446  C2447   1.386   .     S
C2446  C2451   1.386   .     D
C2446  C3186   1.465   .     S
C2447  C2448   1.383   .     D
C2447  H2549   1.071   .     S
C2448  C2449   1.385   .     S
C2448  H2550   1.071   .     S
C2449  C2450   1.393   .     D
C2449  N2452   1.421   .     S
C2450  C2451   1.381   .     S
C2450  H2551   1.070   .     S
C2451  H2552   1.071   .     S
N2452  C2453   1.286   .     D
C2453  C2454   1.459   .     S
C2453  H2553   1.071   .     S
C2454  C2455   1.386   .     D
C2454  C2459   1.390   .     S
C2455  C2456   1.381   .     S
C2455  H2554   1.071   .     S
C2456  C2457   1.392   .     D
C2456  H2555   1.070   .     S
C2457  C2458   1.391   .     S
C2457  C2460   1.472   .     S
C2458  C2459   1.383   .     D
C2458  H2556   1.071   .     S
C2459  H2557   1.071   .     S
C2460  C2461   1.391   .     D
C2460  C2465   1.392   .     S
C2461  C2462   1.380   .     S
C2461  H2558   1.071   .     S
C2462  C2463   1.389   .     D
C2462  H2559   1.071   .     S
C2463  C2464   1.389   .     S
C2463  N3968   1.431   .     S
C2464  C2465   1.382   .     D
C2464  H2560   1.070   .     S
C2465  H2561   1.069   .     S
C2466  C2467   1.386   .     D
C2466  C2471   1.386   .     S
C2466  C2857   1.469   .     S
C2467  C2468   1.381   .     S
C2467  H2562   1.072   .     S
C2468  C2469   1.385   .     D
C2468  H2563   1.070   .     S
C2469  C2470   1.395   .     S
C2469  N2472   1.422   .     S
C2470  C2471   1.383   .     D
C2470  H2564   1.067   .     S
C2471  H2565   1.071   .     S
N2472  C2473   1.285   .     D
C2473  C2474   1.460   .     S
C2473  H2566   1.068   .     S
C2474  C2475   1.387   .     D
C2474  C2479   1.389   .     S
C2475  C2476   1.382   .     S
C2475  H2567   1.072   .     S
C2476  C2477   1.390   .     D
C2476  H2568   1.071   .     S
C2477  C2478   1.391   .     S
C2477  C2480   1.468   .     S
C2478  C2479   1.382   .     D
C2478  H2569   1.070   .     S
C2479  H2570   1.071   .     S
C2480  C2481   1.390   .     D
C2480  C2485   1.390   .     S
C2481  C2482   1.381   .     S
C2481  H2571   1.070   .     S
C2482  C2483   1.389   .     D
C2482  H2572   1.071   .     S
C2483  C2484   1.388   .     S
C2483  N2548   1.429   .     S
C2484  C2485   1.383   .     D
C2484  H2573   1.071   .     S
C2485  H2574   1.070   .     S
C2486  C2487   1.387   .     S
C2486  C2491   1.386   .     D
C2486  C2705   1.469   .     S
C2487  C2488   1.381   .     D
C2487  H2575   1.071   .     S
C2488  C2489   1.385   .     S
C2488  H2576   1.071   .     S
C2489  C2490   1.395   .     D
C2489  N2492   1.422   .     S
C2490  C2491   1.382   .     S
C2490  H2577   1.067   .     S
C2491  H2578   1.071   .     S
N2492  C2493   1.286   .     D
C2493  C2494   1.461   .     S
C2493  H2579   1.070   .     S
C2494  C2495   1.387   .     S
C2494  C2499   1.390   .     D
C2495  C2496   1.382   .     D
C2495  H2580   1.072   .     S
C2496  C2497   1.390   .     S
C2496  H2581   1.072   .     S
C2497  C2498   1.390   .     D
C2497  C2500   1.468   .     S
C2498  C2499   1.382   .     S
C2498  H2582   1.071   .     S
C2499  H2583   1.071   .     S
C2500  C2501   1.390   .     S
C2500  C2505   1.391   .     D
C2501  C2502   1.382   .     D
C2501  H2584   1.070   .     S
C2502  C2503   1.390   .     S
C2502  H2585   1.071   .     S
C2503  C2504   1.389   .     D
C2503  N2711   1.428   .     S
C2504  C2505   1.382   .     S
C2504  H2586   1.071   .     S
C2505  H2587   1.070   .     S
C2506  C2507   1.385   .     S
C2506  C2511   1.386   .     D
C2506  C3034   1.469   .     S
C2507  C2508   1.382   .     D
C2507  H2588   1.071   .     S
C2508  C2509   1.386   .     S
C2508  H2589   1.070   .     S
C2509  C2510   1.395   .     D
C2509  N2512   1.423   .     S
C2510  C2511   1.382   .     S
C2510  H2590   1.067   .     S
C2511  H2591   1.071   .     S
N2512  C2513   1.286   .     D
C2513  C2514   1.460   .     S
C2513  H2592   1.068   .     S
C2514  C2515   1.387   .     S
C2514  C2519   1.390   .     D
C2515  C2516   1.382   .     D
C2515  H2593   1.072   .     S
C2516  C2517   1.390   .     S
C2516  H2594   1.071   .     S
C2517  C2518   1.390   .     D
C2517  C2520   1.468   .     S
C2518  C2519   1.382   .     S
C2518  H2595   1.071   .     S
C2519  H2596   1.071   .     S
C2520  C2521   1.391   .     S
C2520  C2525   1.391   .     D
C2521  C2522   1.381   .     D
C2521  H2597   1.071   .     S
C2522  C2523   1.388   .     S
C2522  H2598   1.071   .     S
C2523  C2524   1.389   .     D
C2523  N3526   1.428   .     S
C2524  C2525   1.382   .     S
C2524  H2599   1.071   .     S
C2525  H2600   1.070   .     S
C2526  C2527   1.371   .     S
C2526  C2530   1.357   .     D
C2526  H2601   1.071   .     S
C2527  N2528   1.337   .     S
C2527  C2534   1.405   .     D
N2528  C2529   1.336   .     D
N2528  Cu3985  1.872   .     S
C2529  C2530   1.372   .     S
C2529  C2531   1.406   .     S
C2530  H2602   1.070   .     S
C2531  C2532   1.404   .     D
C2531  C3607   1.469   .     S
C2532  N3935   1.337   .     S
C2533  H2603   1.070   .     S
C2534  C2535   1.403   .     S
C2534  C3750   1.465   .     S
C2535  C2536   1.372   .     S
C2535  N3936   1.334   .     D
C2536  H2604   1.070   .     S
C2537  C2538   1.372   .     S
C2537  C2541   1.356   .     D
C2537  H2605   1.071   .     S
C2538  N2539   1.336   .     D
C2538  C2545   1.406   .     S
N2539  C2540   1.337   .     S
N2539  Cu3977  1.873   .     S
C2540  C2541   1.372   .     S
C2540  C2542   1.405   .     D
C2541  H2606   1.071   .     S
C2542  C2543   1.405   .     S
C2542  C3464   1.469   .     S
C2543  N3959   1.336   .     D
C2544  H2607   1.071   .     S
C2544  C262    1.356   1_565 D
C2545  C2546   1.405   .     D
C2545  C3321   1.469   .     S
C2546  C2547   1.372   .     S
C2546  N3960   1.336   .     S
C2547  H2608   1.070   .     S
C2547  C265    1.356   1_545 D
N2548  C3481   1.428   .     S
N2548  C2686   1.428   .     S
C2609  C2610   1.386   .     D
C2609  C2614   1.386   .     S
C2609  C3675   1.465   .     S
C2610  C2611   1.383   .     S
C2610  H2712   1.071   .     S
C2611  C2612   1.385   .     D
C2611  H2713   1.071   .     S
C2612  C2613   1.393   .     S
C2612  N2615   1.421   .     S
C2613  C2614   1.381   .     D
C2613  H2714   1.070   .     S
C2614  H2715   1.071   .     S
N2615  C2616   1.286   .     D
C2616  C2617   1.459   .     S
C2616  H2716   1.071   .     S
C2617  C2618   1.386   .     D
C2617  C2622   1.390   .     S
C2618  C2619   1.381   .     S
C2618  H2717   1.071   .     S
C2619  C2620   1.392   .     D
C2619  H2718   1.070   .     S
C2620  C2621   1.391   .     S
C2620  C2623   1.472   .     S
C2621  C2622   1.383   .     D
C2621  H2719   1.071   .     S
C2622  H2720   1.071   .     S
C2623  C2624   1.391   .     D
C2623  C2628   1.392   .     S
C2624  C2625   1.380   .     S
C2624  H2721   1.071   .     S
C2625  C2626   1.389   .     D
C2625  H2722   1.071   .     S
C2626  C2627   1.389   .     S
C2626  N3968   1.431   .     S
C2627  C2628   1.382   .     D
C2627  H2723   1.070   .     S
C2628  H2724   1.069   .     S
C2629  C2630   1.386   .     D
C2629  C2634   1.386   .     S
C2629  C3346   1.469   .     S
C2630  C2631   1.381   .     S
C2630  H2725   1.072   .     S
C2631  C2632   1.385   .     D
C2631  H2726   1.070   .     S
C2632  C2633   1.395   .     S
C2632  N2635   1.422   .     S
C2633  C2634   1.383   .     D
C2633  H2727   1.067   .     S
C2634  H2728   1.071   .     S
N2635  C2636   1.285   .     D
C2636  C2637   1.460   .     S
C2636  H2729   1.068   .     S
C2637  C2638   1.387   .     D
C2637  C2642   1.389   .     S
C2638  C2639   1.382   .     S
C2638  H2730   1.072   .     S
C2639  C2640   1.390   .     D
C2639  H2731   1.071   .     S
C2640  C2641   1.391   .     S
C2640  C2643   1.468   .     S
C2641  C2642   1.382   .     D
C2641  H2732   1.070   .     S
C2642  H2733   1.071   .     S
C2643  C2644   1.390   .     D
C2643  C2648   1.390   .     S
C2644  C2645   1.381   .     S
C2644  H2734   1.070   .     S
C2645  C2646   1.389   .     D
C2645  H2735   1.071   .     S
C2646  C2647   1.388   .     S
C2646  N2711   1.429   .     S
C2647  C2648   1.383   .     D
C2647  H2736   1.071   .     S
C2648  H2737   1.070   .     S
C2649  C2650   1.387   .     D
C2649  C2654   1.386   .     S
C2649  C3520   1.469   .     S
C2650  C2651   1.381   .     S
C2650  H2738   1.071   .     S
C2651  C2652   1.385   .     D
C2651  H2739   1.071   .     S
C2652  C2653   1.395   .     S
C2652  N2655   1.422   .     S
C2653  C2654   1.382   .     D
C2653  H2740   1.067   .     S
C2654  H2741   1.071   .     S
N2655  C2656   1.286   .     D
C2656  C2657   1.461   .     S
C2656  H2742   1.070   .     S
C2657  C2658   1.387   .     D
C2657  C2662   1.390   .     S
C2658  C2659   1.382   .     S
C2658  H2743   1.072   .     S
C2659  C2660   1.390   .     D
C2659  H2744   1.072   .     S
C2660  C2661   1.390   .     S
C2660  C2663   1.468   .     S
C2661  C2662   1.382   .     D
C2661  H2745   1.071   .     S
C2662  H2746   1.071   .     S
C2663  C2664   1.390   .     D
C2663  C2668   1.391   .     S
C2664  C2665   1.382   .     S
C2664  H2747   1.070   .     S
C2665  C2666   1.390   .     D
C2665  H2748   1.071   .     S
C2666  C2667   1.389   .     S
C2666  N3526   1.428   .     S
C2667  C2668   1.382   .     D
C2667  H2749   1.071   .     S
C2668  H2750   1.070   .     S
C2669  C2670   1.385   .     S
C2669  C2674   1.386   .     D
C2669  C3849   1.469   .     S
C2670  C2671   1.382   .     D
C2670  H2751   1.071   .     S
C2671  C2672   1.386   .     S
C2671  H2752   1.070   .     S
C2672  C2673   1.395   .     D
C2672  N2675   1.423   .     S
C2673  C2674   1.382   .     S
C2673  H2753   1.067   .     S
C2674  H2754   1.071   .     S
N2675  C2676   1.286   .     D
C2676  C2677   1.460   .     S
C2676  H2755   1.068   .     S
C2677  C2678   1.387   .     S
C2677  C2682   1.390   .     D
C2678  C2679   1.382   .     D
C2678  H2756   1.072   .     S
C2679  C2680   1.390   .     S
C2679  H2757   1.071   .     S
C2680  C2681   1.390   .     D
C2680  C2683   1.468   .     S
C2681  C2682   1.382   .     S
C2681  H2758   1.071   .     S
C2682  H2759   1.071   .     S
C2683  C2684   1.391   .     S
C2683  C2688   1.391   .     D
C2684  C2685   1.381   .     D
C2684  H2760   1.071   .     S
C2685  C2686   1.388   .     S
C2685  H2761   1.071   .     S
C2686  C2687   1.389   .     D
C2687  C2688   1.382   .     S
C2687  H2762   1.071   .     S
C2688  H2763   1.070   .     S
C2689  C2690   1.371   .     S
C2689  C2693   1.357   .     D
C2689  H2764   1.071   .     S
C2690  N2691   1.337   .     S
C2690  C2697   1.405   .     D
N2691  C2692   1.336   .     D
N2691  Cu3990  1.872   .     S
C2692  C2693   1.372   .     S
C2692  C2694   1.406   .     S
C2693  H2765   1.070   .     S
C2694  C2695   1.404   .     D
C2695  N3915   1.337   .     S
C2696  H2766   1.070   .     S
C2697  C2698   1.403   .     S
C2698  C2699   1.372   .     S
C2698  N3916   1.334   .     D
C2699  H2767   1.070   .     S
C2700  C2701   1.372   .     S
C2700  C2704   1.356   .     D
C2700  H2768   1.071   .     S
C2701  N2702   1.336   .     S
C2701  C2708   1.406   .     D
N2702  C2703   1.337   .     D
N2702  Cu3971  1.873   1_556 S
C2703  C2704   1.372   .     S
C2703  C2705   1.405   .     S
C2704  H2769   1.071   .     S
C2705  C2706   1.405   .     D
C2706  N3939   1.336   1_556 S
C2707  H2770   1.071   .     S
C2707  C1077   1.356   1_554 D
C2708  C2709   1.405   .     S
C2709  C2710   1.372   .     S
C2709  N3940   1.336   1_556 D
C2710  H2771   1.070   .     S
C2710  C1080   1.356   1_556 D
N2711  C3501   1.428   .     S
C2772  C2773   1.386   .     D
C2772  C2777   1.386   .     S
C2772  C3349   1.465   .     S
C2773  C2774   1.383   .     S
C2773  H2875   1.071   .     S
C2774  C2775   1.385   .     D
C2774  H2876   1.071   .     S
C2775  C2776   1.393   .     S
C2775  N2778   1.421   .     S
C2776  C2777   1.381   .     D
C2776  H2877   1.070   .     S
C2777  H2878   1.071   .     S
N2778  C2779   1.286   .     D
C2779  C2780   1.459   .     S
C2779  H2879   1.071   .     S
C2780  C2781   1.386   .     D
C2780  C2785   1.390   .     S
C2781  C2782   1.381   .     S
C2781  H2880   1.071   .     S
C2782  C2783   1.392   .     D
C2782  H2881   1.070   .     S
C2783  C2784   1.391   .     S
C2783  C2786   1.472   .     S
C2784  C2785   1.383   .     D
C2784  H2882   1.071   .     S
C2785  H2883   1.071   .     S
C2786  C2787   1.391   .     D
C2786  C2791   1.392   .     S
C2787  C2788   1.380   .     S
C2787  H2884   1.071   .     S
C2788  C2789   1.389   .     D
C2788  H2885   1.071   .     S
C2789  C2790   1.389   .     S
C2789  N3965   1.431   .     S
C2790  C2791   1.382   .     D
C2790  H2886   1.070   .     S
C2791  H2887   1.069   .     S
C2792  C2793   1.386   .     D
C2792  C2797   1.386   .     S
C2792  C3672   1.469   .     S
C2793  C2794   1.381   .     S
C2793  H2888   1.072   .     S
C2794  C2795   1.385   .     D
C2794  H2889   1.070   .     S
C2795  C2796   1.395   .     S
C2795  N2798   1.422   .     S
C2796  C2797   1.383   .     D
C2796  H2890   1.067   .     S
C2797  H2891   1.071   .     S
N2798  C2799   1.285   .     D
C2799  C2800   1.460   .     S
C2799  H2892   1.068   .     S
C2800  C2801   1.387   .     D
C2800  C2805   1.389   .     S
C2801  C2802   1.382   .     S
C2801  H2893   1.072   .     S
C2802  C2803   1.390   .     D
C2802  H2894   1.071   .     S
C2803  C2804   1.391   .     S
C2803  C2806   1.468   .     S
C2804  C2805   1.382   .     D
C2804  H2895   1.070   .     S
C2805  H2896   1.071   .     S
C2806  C2807   1.390   .     D
C2806  C2811   1.390   .     S
C2807  C2808   1.381   .     S
C2807  H2897   1.070   .     S
C2808  C2809   1.389   .     D
C2808  H2898   1.071   .     S
C2809  C2810   1.388   .     S
C2809  N2874   1.429   .     S
C2810  C2811   1.383   .     D
C2810  H2899   1.071   .     S
C2811  H2900   1.070   .     S
C2812  C2813   1.387   .     S
C2812  C2817   1.386   .     D
C2812  C3846   1.469   .     S
C2813  C2814   1.381   .     D
C2813  H2901   1.071   .     S
C2814  C2815   1.385   .     S
C2814  H2902   1.071   .     S
C2815  C2816   1.395   .     D
C2815  N2818   1.422   .     S
C2816  C2817   1.382   .     S
C2816  H2903   1.067   .     S
C2817  H2904   1.071   .     S
N2818  C2819   1.286   .     D
C2819  C2820   1.461   .     S
C2819  H2905   1.070   .     S
C2820  C2821   1.387   .     S
C2820  C2825   1.390   .     D
C2821  C2822   1.382   .     D
C2821  H2906   1.072   .     S
C2822  C2823   1.390   .     S
C2822  H2907   1.072   .     S
C2823  C2824   1.390   .     D
C2823  C2826   1.468   .     S
C2824  C2825   1.382   .     S
C2824  H2908   1.071   .     S
C2825  H2909   1.071   .     S
C2826  C2827   1.390   .     S
C2826  C2831   1.391   .     D
C2827  C2828   1.382   .     D
C2827  H2910   1.070   .     S
C2828  C2829   1.390   .     S
C2828  H2911   1.071   .     S
C2829  C2830   1.389   .     D
C2829  N3852   1.428   .     S
C2830  C2831   1.382   .     S
C2830  H2912   1.071   .     S
C2831  H2913   1.070   .     S
C2832  C2833   1.385   .     D
C2832  C2837   1.386   .     S
C2832  C3523   1.469   .     S
C2833  C2834   1.382   .     S
C2833  H2914   1.071   .     S
C2834  C2835   1.386   .     D
C2834  H2915   1.070   .     S
C2835  C2836   1.395   .     S
C2835  N2838   1.423   .     S
C2836  C2837   1.382   .     D
C2836  H2916   1.067   .     S
C2837  H2917   1.071   .     S
N2838  C2839   1.286   .     D
C2839  C2840   1.460   .     S
C2839  H2918   1.068   .     S
C2840  C2841   1.387   .     D
C2840  C2845   1.390   .     S
C2841  C2842   1.382   .     S
C2841  H2919   1.072   .     S
C2842  C2843   1.390   .     D
C2842  H2920   1.071   .     S
C2843  C2844   1.390   .     S
C2843  C2846   1.468   .     S
C2844  C2845   1.382   .     D
C2844  H2921   1.071   .     S
C2845  H2922   1.071   .     S
C2846  C2847   1.391   .     D
C2846  C2851   1.391   .     S
C2847  C2848   1.381   .     S
C2847  H2923   1.071   .     S
C2848  C2849   1.388   .     D
C2848  H2924   1.071   .     S
C2849  C2850   1.389   .     S
C2850  C2851   1.382   .     D
C2850  H2925   1.071   .     S
C2851  H2926   1.070   .     S
C2852  C2853   1.371   .     S
C2852  C2856   1.357   .     D
C2852  H2927   1.071   .     S
C2853  N2854   1.337   .     S
C2853  C2860   1.405   .     D
N2854  C2855   1.336   .     D
N2854  Cu3992  1.872   .     S
C2855  C2856   1.372   .     S
C2855  C2857   1.406   .     S
C2856  H2928   1.070   .     S
C2857  C2858   1.404   .     D
C2858  N3917   1.337   .     S
C2859  H2929   1.070   .     S
C2860  C2861   1.403   .     S
C2861  C2862   1.372   .     S
C2861  N3918   1.334   .     D
C2862  H2930   1.070   .     S
C2863  C2864   1.372   .     S
C2863  C2867   1.356   .     D
C2863  H2931   1.071   .     S
C2864  N2865   1.336   .     D
C2864  C2871   1.406   .     S
N2865  C2866   1.337   .     S
N2865  Cu3970  1.873   .     S
C2866  C2867   1.372   .     S
C2866  C2868   1.405   .     D
C2867  H2932   1.071   .     S
C2868  C2869   1.405   .     S
C2869  N3941   1.336   .     D
C2870  H2933   1.071   .     S
C2870  C1240   1.356   1_556 D
C2871  C2872   1.405   .     D
C2872  C2873   1.372   .     S
C2872  N3942   1.336   .     S
C2873  H2934   1.070   .     S
C2873  C1243   1.356   1_554 D
N2874  C3827   1.428   .     S
C2935  C2936   1.386   .     D
C2935  C2940   1.386   .     S
C2935  C3512   1.465   .     S
C2936  C2937   1.383   .     S
C2936  H3038   1.071   .     S
C2937  C2938   1.385   .     D
C2937  H3039   1.071   .     S
C2938  C2939   1.393   .     S
C2938  N2941   1.421   .     S
C2939  C2940   1.381   .     D
C2939  H3040   1.070   .     S
C2940  H3041   1.071   .     S
N2941  C2942   1.286   .     D
C2942  C2943   1.459   .     S
C2942  H3042   1.071   .     S
C2943  C2944   1.386   .     D
C2943  C2948   1.390   .     S
C2944  C2945   1.381   .     S
C2944  H3043   1.071   .     S
C2945  C2946   1.392   .     D
C2945  H3044   1.070   .     S
C2946  C2947   1.391   .     S
C2946  C2949   1.472   .     S
C2947  C2948   1.383   .     D
C2947  H3045   1.071   .     S
C2948  H3046   1.071   .     S
C2949  C2950   1.391   .     D
C2949  C2954   1.392   .     S
C2950  C2951   1.380   .     S
C2950  H3047   1.071   .     S
C2951  C2952   1.389   .     D
C2951  H3048   1.071   .     S
C2952  C2953   1.389   .     S
C2952  N3967   1.431   .     S
C2953  C2954   1.382   .     D
C2953  H3049   1.070   .     S
C2954  H3050   1.069   .     S
C2955  C2956   1.386   .     D
C2955  C2960   1.386   .     S
C2955  C3835   1.469   .     S
C2956  C2957   1.381   .     S
C2956  H3051   1.072   .     S
C2957  C2958   1.385   .     D
C2957  H3052   1.070   .     S
C2958  C2959   1.395   .     S
C2958  N2961   1.422   .     S
C2959  C2960   1.383   .     D
C2959  H3053   1.067   .     S
C2960  H3054   1.071   .     S
N2961  C2962   1.285   .     D
C2962  C2963   1.460   .     S
C2962  H3055   1.068   .     S
C2963  C2964   1.387   .     D
C2963  C2968   1.389   .     S
C2964  C2965   1.382   .     S
C2964  H3056   1.072   .     S
C2965  C2966   1.390   .     D
C2965  H3057   1.071   .     S
C2966  C2967   1.391   .     S
C2966  C2969   1.468   .     S
C2967  C2968   1.382   .     D
C2967  H3058   1.070   .     S
C2968  H3059   1.071   .     S
C2969  C2970   1.390   .     D
C2969  C2974   1.390   .     S
C2970  C2971   1.381   .     S
C2970  H3060   1.070   .     S
C2971  C2972   1.389   .     D
C2971  H3061   1.071   .     S
C2972  C2973   1.388   .     S
C2972  N3037   1.429   .     S
C2973  C2974   1.383   .     D
C2973  H3062   1.071   .     S
C2974  H3063   1.070   .     S
C2975  C2976   1.387   .     D
C2975  C2980   1.386   .     S
C2975  C3683   1.469   .     S
C2976  C2977   1.381   .     S
C2976  H3064   1.071   .     S
C2977  C2978   1.385   .     D
C2977  H3065   1.071   .     S
C2978  C2979   1.395   .     S
C2978  N2981   1.422   .     S
C2979  C2980   1.382   .     D
C2979  H3066   1.067   .     S
C2980  H3067   1.071   .     S
N2981  C2982   1.286   .     D
C2982  C2983   1.461   .     S
C2982  H3068   1.070   .     S
C2983  C2984   1.387   .     D
C2983  C2988   1.390   .     S
C2984  C2985   1.382   .     S
C2984  H3069   1.072   .     S
C2985  C2986   1.390   .     D
C2985  H3070   1.072   .     S
C2986  C2987   1.390   .     S
C2986  C2989   1.468   .     S
C2987  C2988   1.382   .     D
C2987  H3071   1.071   .     S
C2988  H3072   1.071   .     S
C2989  C2990   1.390   .     D
C2989  C2994   1.391   .     S
C2990  C2991   1.382   .     S
C2990  H3073   1.070   .     S
C2991  C2992   1.390   .     D
C2991  H3074   1.071   .     S
C2992  C2993   1.389   .     S
C2992  N3689   1.428   .     S
C2993  C2994   1.382   .     D
C2993  H3075   1.071   .     S
C2994  H3076   1.070   .     S
C2995  C2996   1.385   .     D
C2995  C3000   1.386   .     S
C2995  C3360   1.469   .     S
C2996  C2997   1.382   .     S
C2996  H3077   1.071   .     S
C2997  C2998   1.386   .     D
C2997  H3078   1.070   .     S
C2998  C2999   1.395   .     S
C2998  N3001   1.423   .     S
C2999  C3000   1.382   .     D
C2999  H3079   1.067   .     S
C3000  H3080   1.071   .     S
N3001  C3002   1.286   .     D
C3002  C3003   1.460   .     S
C3002  H3081   1.068   .     S
C3003  C3004   1.387   .     D
C3003  C3008   1.390   .     S
C3004  C3005   1.382   .     S
C3004  H3082   1.072   .     S
C3005  C3006   1.390   .     D
C3005  H3083   1.071   .     S
C3006  C3007   1.390   .     S
C3006  C3009   1.468   .     S
C3007  C3008   1.382   .     D
C3007  H3084   1.071   .     S
C3008  H3085   1.071   .     S
C3009  C3010   1.391   .     D
C3009  C3014   1.391   .     S
C3010  C3011   1.381   .     S
C3010  H3086   1.071   .     S
C3011  C3012   1.388   .     D
C3011  H3087   1.071   .     S
C3012  C3013   1.389   .     S
C3013  C3014   1.382   .     D
C3013  H3088   1.071   .     S
C3014  H3089   1.070   .     S
C3015  C3016   1.371   .     S
C3015  C3019   1.357   .     D
C3015  H3090   1.071   .     S
C3016  N3017   1.337   .     D
C3016  C3023   1.405   .     S
N3017  C3018   1.336   .     S
N3017  Cu3991  1.872   .     S
C3018  C3019   1.372   .     S
C3018  C3020   1.406   .     D
C3019  H3091   1.070   .     S
C3020  C3021   1.404   .     S
C3021  N3913   1.337   .     D
C3022  H3092   1.070   .     S
C3023  C3024   1.403   .     D
C3024  C3025   1.372   .     S
C3024  N3914   1.334   .     S
C3025  H3093   1.070   .     S
C3026  C3027   1.372   .     S
C3026  C3030   1.356   .     D
C3026  H3094   1.071   .     S
C3027  N3028   1.336   .     S
C3027  C3034   1.406   .     D
N3028  C3029   1.337   .     D
N3028  Cu3972  1.873   1_556 S
C3029  C3030   1.372   .     S
C3029  C3031   1.405   .     S
C3030  H3095   1.071   .     S
C3031  C3032   1.405   .     D
C3032  N3937   1.336   1_556 S
C3033  H3096   1.071   .     S
C3033  C751    1.356   1_554 D
C3034  C3035   1.405   .     S
C3035  C3036   1.372   .     S
C3035  N3938   1.336   1_556 D
C3036  H3097   1.070   .     S
C3036  C754    1.356   1_556 D
N3037  C3664   1.428   .     S
C3098  C3099   1.386   .     D
C3098  C3103   1.386   .     S
C3098  C3838   1.465   .     S
C3099  C3100   1.383   .     S
C3099  H3201   1.071   .     S
C3100  C3101   1.385   .     D
C3100  H3202   1.071   .     S
C3101  C3102   1.393   .     S
C3101  N3104   1.421   .     S
C3102  C3103   1.381   .     D
C3102  H3203   1.070   .     S
C3103  H3204   1.071   .     S
N3104  C3105   1.286   .     D
C3105  C3106   1.459   .     S
C3105  H3205   1.071   .     S
C3106  C3107   1.386   .     D
C3106  C3111   1.390   .     S
C3107  C3108   1.381   .     S
C3107  H3206   1.071   .     S
C3108  C3109   1.392   .     D
C3108  H3207   1.070   .     S
C3109  C3110   1.391   .     S
C3109  C3112   1.472   .     S
C3110  C3111   1.383   .     D
C3110  H3208   1.071   .     S
C3111  H3209   1.071   .     S
C3112  C3113   1.391   .     D
C3112  C3117   1.392   .     S
C3113  C3114   1.380   .     S
C3113  H3210   1.071   .     S
C3114  C3115   1.389   .     D
C3114  H3211   1.071   .     S
C3115  C3116   1.389   .     S
C3115  N3966   1.431   .     S
C3116  C3117   1.382   .     D
C3116  H3212   1.070   .     S
C3117  H3213   1.069   .     S
C3118  C3119   1.386   .     D
C3118  C3123   1.386   .     S
C3118  C3509   1.469   .     S
C3119  C3120   1.381   .     S
C3119  H3214   1.072   .     S
C3120  C3121   1.385   .     D
C3120  H3215   1.070   .     S
C3121  C3122   1.395   .     S
C3121  N3124   1.422   .     S
C3122  C3123   1.383   .     D
C3122  H3216   1.067   .     S
C3123  H3217   1.071   .     S
N3124  C3125   1.285   .     D
C3125  C3126   1.460   .     S
C3125  H3218   1.068   .     S
C3126  C3127   1.387   .     D
C3126  C3131   1.389   .     S
C3127  C3128   1.382   .     S
C3127  H3219   1.072   .     S
C3128  C3129   1.390   .     D
C3128  H3220   1.071   .     S
C3129  C3130   1.391   .     S
C3129  C3132   1.468   .     S
C3130  C3131   1.382   .     D
C3130  H3221   1.070   .     S
C3131  H3222   1.071   .     S
C3132  C3133   1.390   .     D
C3132  C3137   1.390   .     S
C3133  C3134   1.381   .     S
C3133  H3223   1.070   .     S
C3134  C3135   1.389   .     D
C3134  H3224   1.071   .     S
C3135  C3136   1.388   .     S
C3135  N3200   1.429   .     S
C3136  C3137   1.383   .     D
C3136  H3225   1.071   .     S
C3137  H3226   1.070   .     S
C3138  C3139   1.387   .     D
C3138  C3143   1.386   .     S
C3138  C3357   1.469   .     S
C3139  C3140   1.381   .     S
C3139  H3227   1.071   .     S
C3140  C3141   1.385   .     D
C3140  H3228   1.071   .     S
C3141  C3142   1.395   .     S
C3141  N3144   1.422   .     S
C3142  C3143   1.382   .     D
C3142  H3229   1.067   .     S
C3143  H3230   1.071   .     S
N3144  C3145   1.286   .     D
C3145  C3146   1.461   .     S
C3145  H3231   1.070   .     S
C3146  C3147   1.387   .     D
C3146  C3151   1.390   .     S
C3147  C3148   1.382   .     S
C3147  H3232   1.072   .     S
C3148  C3149   1.390   .     D
C3148  H3233   1.072   .     S
C3149  C3150   1.390   .     S
C3149  C3152   1.468   .     S
C3150  C3151   1.382   .     D
C3150  H3234   1.071   .     S
C3151  H3235   1.071   .     S
C3152  C3153   1.390   .     D
C3152  C3157   1.391   .     S
C3153  C3154   1.382   .     S
C3153  H3236   1.070   .     S
C3154  C3155   1.390   .     D
C3154  H3237   1.071   .     S
C3155  C3156   1.389   .     S
C3155  N3363   1.428   .     S
C3156  C3157   1.382   .     D
C3156  H3238   1.071   .     S
C3157  H3239   1.070   .     S
C3158  C3159   1.385   .     D
C3158  C3163   1.386   .     S
C3158  C3686   1.469   .     S
C3159  C3160   1.382   .     S
C3159  H3240   1.071   .     S
C3160  C3161   1.386   .     D
C3160  H3241   1.070   .     S
C3161  C3162   1.395   .     S
C3161  N3164   1.423   .     S
C3162  C3163   1.382   .     D
C3162  H3242   1.067   .     S
C3163  H3243   1.071   .     S
N3164  C3165   1.286   .     D
C3165  C3166   1.460   .     S
C3165  H3244   1.068   .     S
C3166  C3167   1.387   .     D
C3166  C3171   1.390   .     S
C3167  C3168   1.382   .     S
C3167  H3245   1.072   .     S
C3168  C3169   1.390   .     D
C3168  H3246   1.071   .     S
C3169  C3170   1.390   .     S
C3169  C3172   1.468   .     S
C3170  C3171   1.382   .     D
C3170  H3247   1.071   .     S
C3171  H3248   1.071   .     S
C3172  C3173   1.391   .     D
C3172  C3177   1.391   .     S
C3173  C3174   1.381   .     S
C3173  H3249   1.071   .     S
C3174  C3175   1.388   .     D
C3174  H3250   1.071   .     S
C3175  C3176   1.389   .     S
C3176  C3177   1.382   .     D
C3176  H3251   1.071   .     S
C3177  H3252   1.070   .     S
C3178  C3179   1.371   .     S
C3178  C3182   1.357   .     D
C3178  H3253   1.071   .     S
C3179  N3180   1.337   .     D
C3179  C3186   1.405   .     S
N3180  C3181   1.336   .     S
N3180  Cu3989  1.872   .     S
C3181  C3182   1.372   .     S
C3181  C3183   1.406   .     D
C3182  H3254   1.070   .     S
C3183  C3184   1.404   .     S
C3184  N3919   1.337   .     D
C3185  H3255   1.070   .     S
C3186  C3187   1.403   .     D
C3187  C3188   1.372   .     S
C3187  N3920   1.334   .     S
C3188  H3256   1.070   .     S
C3189  C3190   1.372   .     S
C3189  C3193   1.356   .     D
C3189  H3257   1.071   .     S
C3190  N3191   1.336   .     D
C3190  C3197   1.406   .     S
N3191  C3192   1.337   .     S
N3191  Cu3969  1.873   .     S
C3192  C3193   1.372   .     S
C3192  C3194   1.405   .     D
C3193  H3258   1.071   .     S
C3194  C3195   1.405   .     S
C3195  N3943   1.336   .     D
C3196  H3259   1.071   .     S
C3196  C914    1.356   1_556 D
C3197  C3198   1.405   .     D
C3198  C3199   1.372   .     S
C3198  N3944   1.336   .     S
C3199  H3260   1.070   .     S
C3199  C917    1.356   1_554 D
N3200  C3338   1.428   .     S
C3261  C3262   1.386   .     D
C3261  C3266   1.386   .     S
C3262  C3263   1.383   .     S
C3262  H3364   1.071   .     S
C3263  C3264   1.385   .     D
C3263  H3365   1.071   .     S
C3264  C3265   1.393   .     S
C3264  N3267   1.421   .     S
C3265  C3266   1.381   .     D
C3265  H3366   1.070   .     S
C3266  H3367   1.071   .     S
N3267  C3268   1.286   .     D
C3268  C3269   1.459   .     S
C3268  H3368   1.071   .     S
C3269  C3270   1.386   .     D
C3269  C3274   1.390   .     S
C3270  C3271   1.381   .     S
C3270  H3369   1.071   .     S
C3271  C3272   1.392   .     D
C3271  H3370   1.070   .     S
C3272  C3273   1.391   .     S
C3272  C3275   1.472   .     S
C3273  C3274   1.383   .     D
C3273  H3371   1.071   .     S
C3274  H3372   1.071   .     S
C3275  C3276   1.391   .     D
C3275  C3280   1.392   .     S
C3276  C3277   1.380   .     S
C3276  H3373   1.071   .     S
C3277  C3278   1.389   .     D
C3277  H3374   1.071   .     S
C3278  C3279   1.389   .     S
C3278  N3966   1.431   .     S
C3279  C3280   1.382   .     D
C3279  H3375   1.070   .     S
C3280  H3376   1.069   .     S
C3281  C3282   1.386   .     D
C3281  C3286   1.386   .     S
C3282  C3283   1.381   .     S
C3282  H3377   1.072   .     S
C3283  C3284   1.385   .     D
C3283  H3378   1.070   .     S
C3284  C3285   1.395   .     S
C3284  N3287   1.422   .     S
C3285  C3286   1.383   .     D
C3285  H3379   1.067   .     S
C3286  H3380   1.071   .     S
N3287  C3288   1.285   .     D
C3288  C3289   1.460   .     S
C3288  H3381   1.068   .     S
C3289  C3290   1.387   .     D
C3289  C3294   1.389   .     S
C3290  C3291   1.382   .     S
C3290  H3382   1.072   .     S
C3291  C3292   1.390   .     D
C3291  H3383   1.071   .     S
C3292  C3293   1.391   .     S
C3292  C3295   1.468   .     S
C3293  C3294   1.382   .     D
C3293  H3384   1.070   .     S
C3294  H3385   1.071   .     S
C3295  C3296   1.390   .     D
C3295  C3300   1.390   .     S
C3296  C3297   1.381   .     S
C3296  H3386   1.070   .     S
C3297  C3298   1.389   .     D
C3297  H3387   1.071   .     S
C3298  C3299   1.388   .     S
C3298  N3363   1.429   .     S
C3299  C3300   1.383   .     D
C3299  H3388   1.071   .     S
C3300  H3389   1.070   .     S
C3301  C3302   1.387   .     D
C3301  C3306   1.386   .     S
C3302  C3303   1.381   .     S
C3302  H3390   1.071   .     S
C3303  C3304   1.385   .     D
C3303  H3391   1.071   .     S
C3304  C3305   1.395   .     S
C3304  N3307   1.422   .     S
C3305  C3306   1.382   .     D
C3305  H3392   1.067   .     S
C3306  H3393   1.071   .     S
N3307  C3308   1.286   .     D
C3308  C3309   1.461   .     S
C3308  H3394   1.070   .     S
C3309  C3310   1.387   .     D
C3309  C3314   1.390   .     S
C3310  C3311   1.382   .     S
C3310  H3395   1.072   .     S
C3311  C3312   1.390   .     D
C3311  H3396   1.072   .     S
C3312  C3313   1.390   .     S
C3312  C3315   1.468   .     S
C3313  C3314   1.382   .     D
C3313  H3397   1.071   .     S
C3314  H3398   1.071   .     S
C3315  C3316   1.390   .     D
C3315  C3320   1.391   .     S
C3316  C3317   1.382   .     S
C3316  H3399   1.070   .     S
C3317  C3318   1.390   .     D
C3317  H3400   1.071   .     S
C3318  C3319   1.389   .     S
C3319  C3320   1.382   .     D
C3319  H3401   1.071   .     S
C3320  H3402   1.070   .     S
C3321  C3322   1.385   .     D
C3321  C3326   1.386   .     S
C3322  C3323   1.382   .     S
C3322  H3403   1.071   .     S
C3323  C3324   1.386   .     D
C3323  H3404   1.070   .     S
C3324  C3325   1.395   .     S
C3324  N3327   1.423   .     S
C3325  C3326   1.382   .     D
C3325  H3405   1.067   .     S
C3326  H3406   1.071   .     S
N3327  C3328   1.286   .     D
C3328  C3329   1.460   .     S
C3328  H3407   1.068   .     S
C3329  C3330   1.387   .     D
C3329  C3334   1.390   .     S
C3330  C3331   1.382   .     S
C3330  H3408   1.072   .     S
C3331  C3332   1.390   .     D
C3331  H3409   1.071   .     S
C3332  C3333   1.390   .     S
C3332  C3335   1.468   .     S
C3333  C3334   1.382   .     D
C3333  H3410   1.071   .     S
C3334  H3411   1.071   .     S
C3335  C3336   1.391   .     D
C3335  C3340   1.391   .     S
C3336  C3337   1.381   .     S
C3336  H3412   1.071   .     S
C3337  C3338   1.388   .     D
C3337  H3413   1.071   .     S
C3338  C3339   1.389   .     S
C3339  C3340   1.382   .     D
C3339  H3414   1.071   .     S
C3340  H3415   1.070   .     S
C3341  C3342   1.371   .     S
C3341  C3345   1.357   .     D
C3341  H3416   1.071   .     S
C3342  N3343   1.337   .     S
C3342  C3349   1.405   .     D
N3343  C3344   1.336   .     D
N3343  Cu3982  1.872   .     S
C3344  C3345   1.372   .     S
C3344  C3346   1.406   .     S
C3345  H3417   1.070   .     S
C3346  C3347   1.404   .     D
C3347  N3923   1.337   .     S
C3348  H3418   1.070   .     S
C3349  C3350   1.403   .     S
C3350  C3351   1.372   .     S
C3350  N3924   1.334   .     D
C3351  H3419   1.070   .     S
C3352  C3353   1.372   .     S
C3352  C3356   1.356   .     D
C3352  H3420   1.071   .     S
C3353  N3354   1.336   .     S
C3353  C3360   1.406   .     D
N3354  C3355   1.337   .     D
N3354  Cu3975  1.873   1_655 S
C3355  C3356   1.372   .     S
C3355  C3357   1.405   .     S
C3356  H3421   1.071   .     S
C3357  C3358   1.405   .     D
C3358  N3947   1.336   1_655 S
C3359  H3422   1.071   .     S
C3359  C1729   1.356   1_455 D
C3360  C3361   1.405   .     S
C3361  C3362   1.372   .     S
C3361  N3948   1.336   1_655 D
C3362  H3423   1.070   .     S
C3362  C1732   1.356   1_655 D
C3424  C3425   1.386   .     S
C3424  C3429   1.386   .     D
C3425  C3426   1.383   .     D
C3425  H3527   1.071   .     S
C3426  C3427   1.385   .     S
C3426  H3528   1.071   .     S
C3427  C3428   1.393   .     D
C3427  N3430   1.421   .     S
C3428  C3429   1.381   .     S
C3428  H3529   1.070   .     S
C3429  H3530   1.071   .     S
N3430  C3431   1.286   .     D
C3431  C3432   1.459   .     S
C3431  H3531   1.071   .     S
C3432  C3433   1.386   .     S
C3432  C3437   1.390   .     D
C3433  C3434   1.381   .     D
C3433  H3532   1.071   .     S
C3434  C3435   1.392   .     S
C3434  H3533   1.070   .     S
C3435  C3436   1.391   .     D
C3435  C3438   1.472   .     S
C3436  C3437   1.383   .     S
C3436  H3534   1.071   .     S
C3437  H3535   1.071   .     S
C3438  C3439   1.391   .     S
C3438  C3443   1.392   .     D
C3439  C3440   1.380   .     D
C3439  H3536   1.071   .     S
C3440  C3441   1.389   .     S
C3440  H3537   1.071   .     S
C3441  C3442   1.389   .     D
C3441  N3968   1.431   .     S
C3442  C3443   1.382   .     S
C3442  H3538   1.070   .     S
C3443  H3539   1.069   .     S
C3444  C3445   1.386   .     D
C3444  C3449   1.386   .     S
C3445  C3446   1.381   .     S
C3445  H3540   1.072   .     S
C3446  C3447   1.385   .     D
C3446  H3541   1.070   .     S
C3447  C3448   1.395   .     S
C3447  N3450   1.422   .     S
C3448  C3449   1.383   .     D
C3448  H3542   1.067   .     S
C3449  H3543   1.071   .     S
N3450  C3451   1.285   .     D
C3451  C3452   1.460   .     S
C3451  H3544   1.068   .     S
C3452  C3453   1.387   .     D
C3452  C3457   1.389   .     S
C3453  C3454   1.382   .     S
C3453  H3545   1.072   .     S
C3454  C3455   1.390   .     D
C3454  H3546   1.071   .     S
C3455  C3456   1.391   .     S
C3455  C3458   1.468   .     S
C3456  C3457   1.382   .     D
C3456  H3547   1.070   .     S
C3457  H3548   1.071   .     S
C3458  C3459   1.390   .     D
C3458  C3463   1.390   .     S
C3459  C3460   1.381   .     S
C3459  H3549   1.070   .     S
C3460  C3461   1.389   .     D
C3460  H3550   1.071   .     S
C3461  C3462   1.388   .     S
C3461  N3526   1.429   .     S
C3462  C3463   1.383   .     D
C3462  H3551   1.071   .     S
C3463  H3552   1.070   .     S
C3464  C3465   1.387   .     D
C3464  C3469   1.386   .     S
C3465  C3466   1.381   .     S
C3465  H3553   1.071   .     S
C3466  C3467   1.385   .     D
C3466  H3554   1.071   .     S
C3467  C3468   1.395   .     S
C3467  N3470   1.422   .     S
C3468  C3469   1.382   .     D
C3468  H3555   1.067   .     S
C3469  H3556   1.071   .     S
N3470  C3471   1.286   .     D
C3471  C3472   1.461   .     S
C3471  H3557   1.070   .     S
C3472  C3473   1.387   .     D
C3472  C3477   1.390   .     S
C3473  C3474   1.382   .     S
C3473  H3558   1.072   .     S
C3474  C3475   1.390   .     D
C3474  H3559   1.072   .     S
C3475  C3476   1.390   .     S
C3475  C3478   1.468   .     S
C3476  C3477   1.382   .     D
C3476  H3560   1.071   .     S
C3477  H3561   1.071   .     S
C3478  C3479   1.390   .     D
C3478  C3483   1.391   .     S
C3479  C3480   1.382   .     S
C3479  H3562   1.070   .     S
C3480  C3481   1.390   .     D
C3480  H3563   1.071   .     S
C3481  C3482   1.389   .     S
C3482  C3483   1.382   .     D
C3482  H3564   1.071   .     S
C3483  H3565   1.070   .     S
C3484  C3485   1.385   .     D
C3484  C3489   1.386   .     S
C3485  C3486   1.382   .     S
C3485  H3566   1.071   .     S
C3486  C3487   1.386   .     D
C3486  H3567   1.070   .     S
C3487  C3488   1.395   .     S
C3487  N3490   1.423   .     S
C3488  C3489   1.382   .     D
C3488  H3568   1.067   .     S
C3489  H3569   1.071   .     S
N3490  C3491   1.286   .     D
C3491  C3492   1.460   .     S
C3491  H3570   1.068   .     S
C3492  C3493   1.387   .     D
C3492  C3497   1.390   .     S
C3493  C3494   1.382   .     S
C3493  H3571   1.072   .     S
C3494  C3495   1.390   .     D
C3494  H3572   1.071   .     S
C3495  C3496   1.390   .     S
C3495  C3498   1.468   .     S
C3496  C3497   1.382   .     D
C3496  H3573   1.071   .     S
C3497  H3574   1.071   .     S
C3498  C3499   1.391   .     D
C3498  C3503   1.391   .     S
C3499  C3500   1.381   .     S
C3499  H3575   1.071   .     S
C3500  C3501   1.388   .     D
C3500  H3576   1.071   .     S
C3501  C3502   1.389   .     S
C3502  C3503   1.382   .     D
C3502  H3577   1.071   .     S
C3503  H3578   1.070   .     S
C3504  C3505   1.371   .     S
C3504  C3508   1.357   .     D
C3504  H3579   1.071   .     S
C3505  N3506   1.337   .     S
C3505  C3512   1.405   .     D
N3506  C3507   1.336   .     D
N3506  Cu3984  1.872   .     S
C3507  C3508   1.372   .     S
C3507  C3509   1.406   .     S
C3508  H3580   1.070   .     S
C3509  C3510   1.404   .     D
C3510  N3925   1.337   .     S
C3511  H3581   1.070   .     S
C3512  C3513   1.403   .     S
C3513  C3514   1.372   .     S
C3513  N3926   1.334   .     D
C3514  H3582   1.070   .     S
C3515  C3516   1.372   .     S
C3515  C3519   1.356   .     D
C3515  H3583   1.071   .     S
C3516  N3517   1.336   .     D
C3516  C3523   1.406   .     S
N3517  C3518   1.337   .     S
N3517  Cu3974  1.873   .     S
C3518  C3519   1.372   .     S
C3518  C3520   1.405   .     D
C3519  H3584   1.071   .     S
C3520  C3521   1.405   .     S
C3521  N3949   1.336   .     D
C3522  H3585   1.071   .     S
C3522  C1892   1.356   1_655 D
C3523  C3524   1.405   .     D
C3524  C3525   1.372   .     S
C3524  N3950   1.336   .     S
C3525  H3586   1.070   .     S
C3525  C1895   1.356   1_455 D
C3587  C3588   1.386   .     D
C3587  C3592   1.386   .     S
C3588  C3589   1.383   .     S
C3588  H3690   1.071   .     S
C3589  C3590   1.385   .     D
C3589  H3691   1.071   .     S
C3590  C3591   1.393   .     S
C3590  N3593   1.421   .     S
C3591  C3592   1.381   .     D
C3591  H3692   1.070   .     S
C3592  H3693   1.071   .     S
N3593  C3594   1.286   .     D
C3594  C3595   1.459   .     S
C3594  H3694   1.071   .     S
C3595  C3596   1.386   .     D
C3595  C3600   1.390   .     S
C3596  C3597   1.381   .     S
C3596  H3695   1.071   .     S
C3597  C3598   1.392   .     D
C3597  H3696   1.070   .     S
C3598  C3599   1.391   .     S
C3598  C3601   1.472   .     S
C3599  C3600   1.383   .     D
C3599  H3697   1.071   .     S
C3600  H3698   1.071   .     S
C3601  C3602   1.391   .     D
C3601  C3606   1.392   .     S
C3602  C3603   1.380   .     S
C3602  H3699   1.071   .     S
C3603  C3604   1.389   .     D
C3603  H3700   1.071   .     S
C3604  C3605   1.389   .     S
C3604  N3967   1.431   .     S
C3605  C3606   1.382   .     D
C3605  H3701   1.070   .     S
C3606  H3702   1.069   .     S
C3607  C3608   1.386   .     D
C3607  C3612   1.386   .     S
C3608  C3609   1.381   .     S
C3608  H3703   1.072   .     S
C3609  C3610   1.385   .     D
C3609  H3704   1.070   .     S
C3610  C3611   1.395   .     S
C3610  N3613   1.422   .     S
C3611  C3612   1.383   .     D
C3611  H3705   1.067   .     S
C3612  H3706   1.071   .     S
N3613  C3614   1.285   .     D
C3614  C3615   1.460   .     S
C3614  H3707   1.068   .     S
C3615  C3616   1.387   .     D
C3615  C3620   1.389   .     S
C3616  C3617   1.382   .     S
C3616  H3708   1.072   .     S
C3617  C3618   1.390   .     D
C3617  H3709   1.071   .     S
C3618  C3619   1.391   .     S
C3618  C3621   1.468   .     S
C3619  C3620   1.382   .     D
C3619  H3710   1.070   .     S
C3620  H3711   1.071   .     S
C3621  C3622   1.390   .     D
C3621  C3626   1.390   .     S
C3622  C3623   1.381   .     S
C3622  H3712   1.070   .     S
C3623  C3624   1.389   .     D
C3623  H3713   1.071   .     S
C3624  C3625   1.388   .     S
C3624  N3689   1.429   .     S
C3625  C3626   1.383   .     D
C3625  H3714   1.071   .     S
C3626  H3715   1.070   .     S
C3627  C3628   1.387   .     D
C3627  C3632   1.386   .     S
C3628  C3629   1.381   .     S
C3628  H3716   1.071   .     S
C3629  C3630   1.385   .     D
C3629  H3717   1.071   .     S
C3630  C3631   1.395   .     S
C3630  N3633   1.422   .     S
C3631  C3632   1.382   .     D
C3631  H3718   1.067   .     S
C3632  H3719   1.071   .     S
N3633  C3634   1.286   .     D
C3634  C3635   1.461   .     S
C3634  H3720   1.070   .     S
C3635  C3636   1.387   .     D
C3635  C3640   1.390   .     S
C3636  C3637   1.382   .     S
C3636  H3721   1.072   .     S
C3637  C3638   1.390   .     D
C3637  H3722   1.072   .     S
C3638  C3639   1.390   .     S
C3638  C3641   1.468   .     S
C3639  C3640   1.382   .     D
C3639  H3723   1.071   .     S
C3640  H3724   1.071   .     S
C3641  C3642   1.390   .     D
C3641  C3646   1.391   .     S
C3642  C3643   1.382   .     S
C3642  H3725   1.070   .     S
C3643  C3644   1.390   .     D
C3643  H3726   1.071   .     S
C3644  C3645   1.389   .     S
C3645  C3646   1.382   .     D
C3645  H3727   1.071   .     S
C3646  H3728   1.070   .     S
C3647  C3648   1.385   .     S
C3647  C3652   1.386   .     D
C3648  C3649   1.382   .     D
C3648  H3729   1.071   .     S
C3649  C3650   1.386   .     S
C3649  H3730   1.070   .     S
C3650  C3651   1.395   .     D
C3650  N3653   1.423   .     S
C3651  C3652   1.382   .     S
C3651  H3731   1.067   .     S
C3652  H3732   1.071   .     S
N3653  C3654   1.286   .     D
C3654  C3655   1.460   .     S
C3654  H3733   1.068   .     S
C3655  C3656   1.387   .     S
C3655  C3660   1.390   .     D
C3656  C3657   1.382   .     D
C3656  H3734   1.072   .     S
C3657  C3658   1.390   .     S
C3657  H3735   1.071   .     S
C3658  C3659   1.390   .     D
C3658  C3661   1.468   .     S
C3659  C3660   1.382   .     S
C3659  H3736   1.071   .     S
C3660  H3737   1.071   .     S
C3661  C3662   1.391   .     S
C3661  C3666   1.391   .     D
C3662  C3663   1.381   .     D
C3662  H3738   1.071   .     S
C3663  C3664   1.388   .     S
C3663  H3739   1.071   .     S
C3664  C3665   1.389   .     D
C3665  C3666   1.382   .     S
C3665  H3740   1.071   .     S
C3666  H3741   1.070   .     S
C3667  C3668   1.371   .     S
C3667  C3671   1.357   .     D
C3667  H3742   1.071   .     S
C3668  N3669   1.337   .     D
C3668  C3675   1.405   .     S
N3669  C3670   1.336   .     S
N3669  Cu3983  1.872   .     S
C3670  C3671   1.372   .     S
C3670  C3672   1.406   .     D
C3671  H3743   1.070   .     S
C3672  C3673   1.404   .     S
C3673  N3921   1.337   .     D
C3674  H3744   1.070   .     S
C3675  C3676   1.403   .     D
C3676  C3677   1.372   .     S
C3676  N3922   1.334   .     S
C3677  H3745   1.070   .     S
C3678  C3679   1.372   .     S
C3678  C3682   1.356   .     D
C3678  H3746   1.071   .     S
C3679  N3680   1.336   .     S
C3679  C3686   1.406   .     D
N3680  C3681   1.337   .     D
N3680  Cu3976  1.873   1_655 S
C3681  C3682   1.372   .     S
C3681  C3683   1.405   .     S
C3682  H3747   1.071   .     S
C3683  C3684   1.405   .     D
C3684  N3945   1.336   1_655 S
C3685  H3748   1.071   .     S
C3685  C1403   1.356   1_455 D
C3686  C3687   1.405   .     S
C3687  C3688   1.372   .     S
C3687  N3946   1.336   1_655 D
C3688  H3749   1.070   .     S
C3688  C1406   1.356   1_655 D
C3750  C3751   1.386   .     D
C3750  C3755   1.386   .     S
C3751  C3752   1.383   .     S
C3751  H3853   1.071   .     S
C3752  C3753   1.385   .     D
C3752  H3854   1.071   .     S
C3753  C3754   1.393   .     S
C3753  N3756   1.421   .     S
C3754  C3755   1.381   .     D
C3754  H3855   1.070   .     S
C3755  H3856   1.071   .     S
N3756  C3757   1.286   .     D
C3757  C3758   1.459   .     S
C3757  H3857   1.071   .     S
C3758  C3759   1.386   .     D
C3758  C3763   1.390   .     S
C3759  C3760   1.381   .     S
C3759  H3858   1.071   .     S
C3760  C3761   1.392   .     D
C3760  H3859   1.070   .     S
C3761  C3762   1.391   .     S
C3761  C3764   1.472   .     S
C3762  C3763   1.383   .     D
C3762  H3860   1.071   .     S
C3763  H3861   1.071   .     S
C3764  C3765   1.391   .     D
C3764  C3769   1.392   .     S
C3765  C3766   1.380   .     S
C3765  H3862   1.071   .     S
C3766  C3767   1.389   .     D
C3766  H3863   1.071   .     S
C3767  C3768   1.389   .     S
C3767  N3965   1.431   .     S
C3768  C3769   1.382   .     D
C3768  H3864   1.070   .     S
C3769  H3865   1.069   .     S
C3770  C3771   1.386   .     D
C3770  C3775   1.386   .     S
C3771  C3772   1.381   .     S
C3771  H3866   1.072   .     S
C3772  C3773   1.385   .     D
C3772  H3867   1.070   .     S
C3773  C3774   1.395   .     S
C3773  N3776   1.422   .     S
C3774  C3775   1.383   .     D
C3774  H3868   1.067   .     S
C3775  H3869   1.071   .     S
N3776  C3777   1.285   .     D
C3777  C3778   1.460   .     S
C3777  H3870   1.068   .     S
C3778  C3779   1.387   .     D
C3778  C3783   1.389   .     S
C3779  C3780   1.382   .     S
C3779  H3871   1.072   .     S
C3780  C3781   1.390   .     D
C3780  H3872   1.071   .     S
C3781  C3782   1.391   .     S
C3781  C3784   1.468   .     S
C3782  C3783   1.382   .     D
C3782  H3873   1.070   .     S
C3783  H3874   1.071   .     S
C3784  C3785   1.390   .     D
C3784  C3789   1.390   .     S
C3785  C3786   1.381   .     S
C3785  H3875   1.070   .     S
C3786  C3787   1.389   .     D
C3786  H3876   1.071   .     S
C3787  C3788   1.388   .     S
C3787  N3852   1.429   .     S
C3788  C3789   1.383   .     D
C3788  H3877   1.071   .     S
C3789  H3878   1.070   .     S
C3790  C3791   1.387   .     D
C3790  C3795   1.386   .     S
C3791  C3792   1.381   .     S
C3791  H3879   1.071   .     S
C3792  C3793   1.385   .     D
C3792  H3880   1.071   .     S
C3793  C3794   1.395   .     S
C3793  N3796   1.422   .     S
C3794  C3795   1.382   .     D
C3794  H3881   1.067   .     S
C3795  H3882   1.071   .     S
N3796  C3797   1.286   .     D
C3797  C3798   1.461   .     S
C3797  H3883   1.070   .     S
C3798  C3799   1.387   .     D
C3798  C3803   1.390   .     S
C3799  C3800   1.382   .     S
C3799  H3884   1.072   .     S
C3800  C3801   1.390   .     D
C3800  H3885   1.072   .     S
C3801  C3802   1.390   .     S
C3801  C3804   1.468   .     S
C3802  C3803   1.382   .     D
C3802  H3886   1.071   .     S
C3803  H3887   1.071   .     S
C3804  C3805   1.390   .     D
C3804  C3809   1.391   .     S
C3805  C3806   1.382   .     S
C3805  H3888   1.070   .     S
C3806  C3807   1.390   .     D
C3806  H3889   1.071   .     S
C3807  C3808   1.389   .     S
C3808  C3809   1.382   .     D
C3808  H3890   1.071   .     S
C3809  H3891   1.070   .     S
C3810  C3811   1.385   .     S
C3810  C3815   1.386   .     D
C3811  C3812   1.382   .     D
C3811  H3892   1.071   .     S
C3812  C3813   1.386   .     S
C3812  H3893   1.070   .     S
C3813  C3814   1.395   .     D
C3813  N3816   1.423   .     S
C3814  C3815   1.382   .     S
C3814  H3894   1.067   .     S
C3815  H3895   1.071   .     S
N3816  C3817   1.286   .     D
C3817  C3818   1.460   .     S
C3817  H3896   1.068   .     S
C3818  C3819   1.387   .     S
C3818  C3823   1.390   .     D
C3819  C3820   1.382   .     D
C3819  H3897   1.072   .     S
C3820  C3821   1.390   .     S
C3820  H3898   1.071   .     S
C3821  C3822   1.390   .     D
C3821  C3824   1.468   .     S
C3822  C3823   1.382   .     S
C3822  H3899   1.071   .     S
C3823  H3900   1.071   .     S
C3824  C3825   1.391   .     S
C3824  C3829   1.391   .     D
C3825  C3826   1.381   .     D
C3825  H3901   1.071   .     S
C3826  C3827   1.388   .     S
C3826  H3902   1.071   .     S
C3827  C3828   1.389   .     D
C3828  C3829   1.382   .     S
C3828  H3903   1.071   .     S
C3829  H3904   1.070   .     S
C3830  C3831   1.371   .     S
C3830  C3834   1.357   .     D
C3830  H3905   1.071   .     S
C3831  N3832   1.337   .     S
C3831  C3838   1.405   .     D
N3832  C3833   1.336   .     D
N3832  Cu3981  1.872   .     S
C3833  C3834   1.372   .     S
C3833  C3835   1.406   .     S
C3834  H3906   1.070   .     S
C3835  C3836   1.404   .     D
C3836  N3927   1.337   .     S
C3837  H3907   1.070   .     S
C3838  C3839   1.403   .     S
C3839  C3840   1.372   .     S
C3839  N3928   1.334   .     D
C3840  H3908   1.070   .     S
C3841  C3842   1.372   .     S
C3841  C3845   1.356   .     D
C3841  H3909   1.071   .     S
C3842  N3843   1.336   .     S
C3842  C3849   1.406   .     D
N3843  C3844   1.337   .     D
N3843  Cu3973  1.873   .     S
C3844  C3845   1.372   .     S
C3844  C3846   1.405   .     S
C3845  H3910   1.071   .     S
C3846  C3847   1.405   .     D
C3847  N3951   1.336   .     S
C3848  H3911   1.071   .     S
C3848  C1566   1.356   1_655 D
C3849  C3850   1.405   .     S
C3850  C3851   1.372   .     S
C3850  N3952   1.336   .     D
C3851  H3912   1.070   .     S
C3851  C1569   1.356   1_455 D
N3913  Cu3991  1.873   .     S
N3914  Cu3991  1.873   .     S
N3915  Cu3990  1.873   .     S
N3916  Cu3990  1.873   .     S
N3917  Cu3992  1.873   .     S
N3918  Cu3992  1.873   .     S
N3919  Cu3989  1.873   .     S
N3920  Cu3989  1.873   .     S
N3921  Cu3983  1.873   .     S
N3922  Cu3983  1.873   .     S
N3923  Cu3982  1.873   .     S
N3924  Cu3982  1.873   .     S
N3925  Cu3984  1.873   .     S
N3926  Cu3984  1.873   .     S
N3927  Cu3981  1.873   .     S
N3928  Cu3981  1.873   .     S
N3929  Cu3987  1.873   .     S
N3930  Cu3987  1.873   .     S
N3931  Cu3986  1.873   .     S
N3932  Cu3986  1.873   .     S
N3933  Cu3988  1.873   .     S
N3934  Cu3988  1.873   .     S
N3935  Cu3985  1.873   .     S
N3936  Cu3985  1.873   .     S
N3937  Cu3972  1.874   .     S
N3937  C3032   1.336   1_554 S
N3938  Cu3972  1.874   .     S
N3938  C3035   1.336   1_554 D
N3939  Cu3971  1.874   .     S
N3939  C2706   1.336   1_554 S
N3940  Cu3971  1.874   .     S
N3940  C2709   1.336   1_554 D
N3941  Cu3970  1.874   .     S
N3941  C1239   1.336   1_554 S
N3942  Cu3970  1.874   .     S
N3942  C1242   1.336   1_554 D
N3943  Cu3969  1.874   .     S
N3943  C913    1.336   1_554 S
N3944  Cu3969  1.874   .     S
N3944  C916    1.336   1_554 D
N3945  Cu3976  1.874   .     S
N3945  C3684   1.336   1_455 S
N3946  Cu3976  1.874   .     S
N3946  C3687   1.336   1_455 D
N3947  Cu3975  1.874   .     S
N3947  C3358   1.336   1_455 S
N3948  Cu3975  1.874   .     S
N3948  C3361   1.336   1_455 D
N3949  Cu3974  1.874   .     S
N3949  C1891   1.336   1_455 S
N3950  Cu3974  1.874   .     S
N3950  C1894   1.336   1_455 D
N3951  Cu3973  1.874   .     S
N3951  C1565   1.336   1_455 D
N3952  Cu3973  1.874   .     S
N3952  C1568   1.336   1_455 S
N3953  Cu3980  1.874   .     S
N3953  C2380   1.336   1_545 S
N3954  Cu3980  1.874   .     S
N3954  C2383   1.336   1_545 D
N3955  Cu3979  1.874   .     S
N3955  C2054   1.336   1_545 S
N3956  Cu3979  1.874   .     S
N3956  C2057   1.336   1_545 D
N3957  Cu3978  1.874   .     S
N3957  C587    1.336   1_545 S
N3958  Cu3978  1.874   .     S
N3958  C590    1.336   1_545 D
N3959  Cu3977  1.874   .     S
N3959  C261    1.336   1_545 S
N3960  Cu3977  1.874   .     S
N3960  C264    1.336   1_545 D
Cu3969 N909    1.873   1_554 S
Cu3970 N1235   1.873   1_554 S
Cu3971 N2702   1.873   1_554 S
Cu3972 N3028   1.873   1_554 S
Cu3973 N1561   1.873   1_455 S
Cu3974 N1887   1.873   1_455 S
Cu3975 N3354   1.873   1_455 S
Cu3976 N3680   1.873   1_455 S
Cu3977 N257    1.873   1_545 S
Cu3978 N583    1.873   1_545 S
Cu3979 N2050   1.873   1_545 S
Cu3980 N2376   1.873   1_545 S
