data_918
_audit_creation_date              2023-09-08
_audit_creation_method            'Materials Studio'
_symmetry_space_group_name_H-M    'P1'
_symmetry_Int_Tables_number       1
_symmetry_cell_setting            triclinic
loop_
_symmetry_equiv_pos_as_xyz
  x,y,z
_cell_length_a                    25.4700
_cell_length_b                    25.4700
_cell_length_c                    22.9300
_cell_angle_alpha                 90.0000
_cell_angle_beta                  90.0000
_cell_angle_gamma                 120.0000
loop_
_atom_site_label
_atom_site_type_symbol
_atom_site_fract_x
_atom_site_fract_y
_atom_site_fract_z
_atom_site_U_iso_or_equiv
_atom_site_adp_type
_atom_site_occupancy
C1     C     0.77814   0.88764   0.62538   0.00000  Uiso   1.00
C2     C     0.84238   0.92407   0.62687   0.00000  Uiso   1.00
C3     C     0.93724   0.97082   0.57691   0.00000  Uiso   1.00
C4     C     0.97032   0.03408   0.57697   0.00000  Uiso   1.00
C5     C     0.55551   0.77903   0.12527   0.00000  Uiso   1.00
C6     C     0.49118   0.74263   0.12685   0.00000  Uiso   1.00
C7     C     0.39614   0.69565   0.07678   0.00000  Uiso   1.00
C8     C     0.36280   0.63236   0.07677   0.00000  Uiso   1.00
C9     C     0.61125   0.78165   0.43931   0.00000  Uiso   1.00
C10    C     0.65190   0.80592   0.48577   0.00000  Uiso   1.00
C11    C     0.58164   0.78001   0.33635   0.00000  Uiso   1.00
C12    C     0.62585   0.80714   0.38297   0.00000  Uiso   1.00
C13    C     0.71010   0.85849   0.47624   0.00000  Uiso   1.00
C14    C     0.72475   0.88395   0.41981   0.00000  Uiso   1.00
C15    C     0.68432   0.85933   0.37326   0.00000  Uiso   1.00
C16    C     0.75338   0.88636   0.52342   0.00000  Uiso   1.00
C17    C     0.22203   0.11180   0.26527   0.00000  Uiso   1.00
C18    C     0.15766   0.07552   0.26671   0.00000  Uiso   1.00
C19    C     0.06276   0.02871   0.21645   0.00000  Uiso   1.00
C20    C     0.02922   0.96543   0.21643   0.00000  Uiso   1.00
C21    C     0.44432   0.22112   0.76526   0.00000  Uiso   1.00
C22    C     0.50871   0.25751   0.76656   0.00000  Uiso   1.00
C23    C     0.60381   0.30442   0.71637   0.00000  Uiso   1.00
C24    C     0.63730   0.36773   0.71636   0.00000  Uiso   1.00
C25    C     0.39138   0.21440   0.08063   0.00000  Uiso   1.00
C26    C     0.35051   0.19051   0.12692   0.00000  Uiso   1.00
C27    C     0.41974   0.21802   0.97702   0.00000  Uiso   1.00
C28    C     0.37557   0.19095   0.02358   0.00000  Uiso   1.00
C29    C     0.29075   0.14067   0.11641   0.00000  Uiso   1.00
C30    C     0.27494   0.11717   0.05936   0.00000  Uiso   1.00
C31    C     0.31578   0.14120   0.01304   0.00000  Uiso   1.00
C32    C     0.24654   0.11388   0.16303   0.00000  Uiso   1.00
C33    C     0.12132   0.25086   0.68003   0.00000  Uiso   1.00
C34    C     0.06819   0.12708   0.68006   0.00000  Uiso   1.00
C35    C     0.21193   0.41562   0.17998   0.00000  Uiso   1.00
C36    C     0.26497   0.53924   0.18016   0.00000  Uiso   1.00
O37    O     0.87405   0.94142   0.57459   0.00000  Uiso   1.00
O38    O     0.45938   0.72484   0.07474   0.00000  Uiso   1.00
O39    O     0.63559   0.77975   0.53885   0.00000  Uiso   1.00
O40    O     0.70073   0.88505   0.31987   0.00000  Uiso   1.00
O41    O     0.12604   0.05761   0.21460   0.00000  Uiso   1.00
O42    O     0.54050   0.27531   0.71440   0.00000  Uiso   1.00
O43    O     0.36786   0.21458   0.18075   0.00000  Uiso   1.00
O44    O     0.29840   0.11738   0.95905   0.00000  Uiso   1.00
H45    H     0.94726   0.06037   0.57716   0.00000  Uiso   1.00
H46    H     0.38557   0.60580   0.07691   0.00000  Uiso   1.00
H47    H     0.56695   0.74188   0.44750   0.00000  Uiso   1.00
H48    H     0.67118   0.80543   0.56566   0.00000  Uiso   1.00
H49    H     0.53797   0.74028   0.34797   0.00000  Uiso   1.00
H50    H     0.76861   0.92448   0.41189   0.00000  Uiso   1.00
H51    H     0.66467   0.85977   0.29345   0.00000  Uiso   1.00
H52    H     0.79652   0.92710   0.51245   0.00000  Uiso   1.00
H53    H     0.05175   0.93865   0.21681   0.00000  Uiso   1.00
H54    H     0.61460   0.39435   0.71661   0.00000  Uiso   1.00
H55    H     0.43669   0.25239   0.08933   0.00000  Uiso   1.00
H56    H     0.33144   0.18992   0.20701   0.00000  Uiso   1.00
H57    H     0.46424   0.25617   0.98915   0.00000  Uiso   1.00
H58    H     0.22960   0.07920   0.05069   0.00000  Uiso   1.00
H59    H     0.33484   0.14215   0.93291   0.00000  Uiso   1.00
H60    H     0.20195   0.07580   0.15101   0.00000  Uiso   1.00
H61    H     0.14150   0.30003   0.68002   0.00000  Uiso   1.00
H62    H     0.04662   0.07792   0.68014   0.00000  Uiso   1.00
H63    H     0.19174   0.36646   0.17988   0.00000  Uiso   1.00
H64    H     0.28650   0.58842   0.18018   0.00000  Uiso   1.00
N65    N     0.59399   0.80144   0.28327   0.00000  Uiso   1.00
N66    N     0.74069   0.86462   0.57638   0.00000  Uiso   1.00
N67    N     0.40645   0.19835   0.92337   0.00000  Uiso   1.00
N68    N     0.26001   0.13385   0.21657   0.00000  Uiso   1.00
C69    C     0.11236   0.89050   0.62538   0.00000  Uiso   1.00
C70    C     0.07593   0.91831   0.62687   0.00000  Uiso   1.00
C71    C     0.02918   0.96642   0.57691   0.00000  Uiso   1.00
C72    C     0.96592   0.93624   0.57697   0.00000  Uiso   1.00
C73    C     0.22097   0.77648   0.12527   0.00000  Uiso   1.00
C74    C     0.25737   0.74855   0.12685   0.00000  Uiso   1.00
C75    C     0.30435   0.70049   0.07678   0.00000  Uiso   1.00
C76    C     0.36764   0.73044   0.07677   0.00000  Uiso   1.00
C77    C     0.21835   0.82960   0.43931   0.00000  Uiso   1.00
C78    C     0.19408   0.84598   0.48577   0.00000  Uiso   1.00
C79    C     0.21999   0.80163   0.33635   0.00000  Uiso   1.00
C80    C     0.19286   0.81871   0.38297   0.00000  Uiso   1.00
C81    C     0.14151   0.85161   0.47624   0.00000  Uiso   1.00
C82    C     0.11605   0.84080   0.41981   0.00000  Uiso   1.00
C83    C     0.14067   0.82499   0.37326   0.00000  Uiso   1.00
C84    C     0.11364   0.86702   0.52342   0.00000  Uiso   1.00
C85    C     0.88820   0.11023   0.26527   0.00000  Uiso   1.00
C86    C     0.92448   0.08214   0.26671   0.00000  Uiso   1.00
C87    C     0.97129   0.03405   0.21645   0.00000  Uiso   1.00
C88    C     0.03457   0.06379   0.21643   0.00000  Uiso   1.00
C89    C     0.77888   0.22320   0.76526   0.00000  Uiso   1.00
C90    C     0.74249   0.25120   0.76656   0.00000  Uiso   1.00
C91    C     0.69558   0.29939   0.71637   0.00000  Uiso   1.00
C92    C     0.63227   0.26957   0.71636   0.00000  Uiso   1.00
C93    C     0.78560   0.17698   0.08063   0.00000  Uiso   1.00
C94    C     0.80949   0.16000   0.12692   0.00000  Uiso   1.00
C95    C     0.78198   0.20172   0.97702   0.00000  Uiso   1.00
C96    C     0.80905   0.18462   0.02358   0.00000  Uiso   1.00
C97    C     0.85933   0.15008   0.11641   0.00000  Uiso   1.00
C98    C     0.88283   0.15777   0.05936   0.00000  Uiso   1.00
C99    C     0.85880   0.17458   0.01304   0.00000  Uiso   1.00
C100   C     0.88612   0.13266   0.16303   0.00000  Uiso   1.00
C101   C     0.74914   0.87046   0.68003   0.00000  Uiso   1.00
C102   C     0.87292   0.94111   0.68006   0.00000  Uiso   1.00
C103   C     0.58438   0.79631   0.17998   0.00000  Uiso   1.00
C104   C     0.46076   0.72573   0.18016   0.00000  Uiso   1.00
O105   O     0.05858   0.93263   0.57459   0.00000  Uiso   1.00
O106   O     0.27516   0.73454   0.07474   0.00000  Uiso   1.00
O107   O     0.22025   0.85584   0.53885   0.00000  Uiso   1.00
O108   O     0.11495   0.81568   0.31987   0.00000  Uiso   1.00
O109   O     0.94239   0.06843   0.21460   0.00000  Uiso   1.00
O110   O     0.72469   0.26519   0.71440   0.00000  Uiso   1.00
O111   O     0.78542   0.15328   0.18075   0.00000  Uiso   1.00
O112   O     0.88262   0.18102   0.95905   0.00000  Uiso   1.00
H113   H     0.93963   0.88689   0.57716   0.00000  Uiso   1.00
H114   H     0.39420   0.77977   0.07691   0.00000  Uiso   1.00
H115   H     0.25812   0.82507   0.44750   0.00000  Uiso   1.00
H116   H     0.19457   0.86575   0.56566   0.00000  Uiso   1.00
H117   H     0.25972   0.79769   0.34797   0.00000  Uiso   1.00
H118   H     0.07552   0.84413   0.41189   0.00000  Uiso   1.00
H119   H     0.14023   0.80490   0.29345   0.00000  Uiso   1.00
H120   H     0.07290   0.86942   0.51245   0.00000  Uiso   1.00
H121   H     0.06135   0.11310   0.21681   0.00000  Uiso   1.00
H122   H     0.60565   0.22025   0.71661   0.00000  Uiso   1.00
H123   H     0.74761   0.18430   0.08933   0.00000  Uiso   1.00
H124   H     0.81008   0.14152   0.20701   0.00000  Uiso   1.00
H125   H     0.74383   0.20807   0.98915   0.00000  Uiso   1.00
H126   H     0.92080   0.15040   0.05069   0.00000  Uiso   1.00
H127   H     0.85785   0.19269   0.93291   0.00000  Uiso   1.00
H128   H     0.92420   0.12615   0.15101   0.00000  Uiso   1.00
H129   H     0.69997   0.84147   0.68002   0.00000  Uiso   1.00
H130   H     0.92208   0.96870   0.68014   0.00000  Uiso   1.00
H131   H     0.63354   0.82528   0.17988   0.00000  Uiso   1.00
H132   H     0.41158   0.69808   0.18018   0.00000  Uiso   1.00
N133   N     0.19856   0.79255   0.28327   0.00000  Uiso   1.00
N134   N     0.13538   0.87607   0.57638   0.00000  Uiso   1.00
N135   N     0.80165   0.20810   0.92337   0.00000  Uiso   1.00
N136   N     0.86615   0.12616   0.21657   0.00000  Uiso   1.00
C137   C     0.10950   0.22186   0.62538   0.00000  Uiso   1.00
C138   C     0.08169   0.15762   0.62687   0.00000  Uiso   1.00
C139   C     0.03358   0.06276   0.57691   0.00000  Uiso   1.00
C140   C     0.06376   0.02968   0.57697   0.00000  Uiso   1.00
C141   C     0.22352   0.44449   0.12527   0.00000  Uiso   1.00
C142   C     0.25145   0.50882   0.12685   0.00000  Uiso   1.00
C143   C     0.29951   0.60386   0.07678   0.00000  Uiso   1.00
C144   C     0.26956   0.63720   0.07677   0.00000  Uiso   1.00
C145   C     0.17040   0.38875   0.43931   0.00000  Uiso   1.00
C146   C     0.15402   0.34810   0.48577   0.00000  Uiso   1.00
C147   C     0.19837   0.41836   0.33635   0.00000  Uiso   1.00
C148   C     0.18129   0.37415   0.38297   0.00000  Uiso   1.00
C149   C     0.14839   0.28990   0.47624   0.00000  Uiso   1.00
C150   C     0.15920   0.27525   0.41981   0.00000  Uiso   1.00
C151   C     0.17501   0.31568   0.37326   0.00000  Uiso   1.00
C152   C     0.13298   0.24662   0.52342   0.00000  Uiso   1.00
C153   C     0.88977   0.77797   0.26527   0.00000  Uiso   1.00
C154   C     0.91786   0.84234   0.26671   0.00000  Uiso   1.00
C155   C     0.96595   0.93724   0.21645   0.00000  Uiso   1.00
C156   C     0.93621   0.97078   0.21643   0.00000  Uiso   1.00
C157   C     0.77680   0.55568   0.76526   0.00000  Uiso   1.00
C158   C     0.74880   0.49129   0.76656   0.00000  Uiso   1.00
C159   C     0.70061   0.39619   0.71637   0.00000  Uiso   1.00
C160   C     0.73043   0.36270   0.71636   0.00000  Uiso   1.00
C161   C     0.82302   0.60862   0.08063   0.00000  Uiso   1.00
C162   C     0.84000   0.64949   0.12692   0.00000  Uiso   1.00
C163   C     0.79828   0.58026   0.97702   0.00000  Uiso   1.00
C164   C     0.81538   0.62443   0.02358   0.00000  Uiso   1.00
C165   C     0.84992   0.70925   0.11641   0.00000  Uiso   1.00
C166   C     0.84223   0.72506   0.05936   0.00000  Uiso   1.00
C167   C     0.82542   0.68422   0.01304   0.00000  Uiso   1.00
C168   C     0.86734   0.75346   0.16303   0.00000  Uiso   1.00
C169   C     0.12954   0.87868   0.68003   0.00000  Uiso   1.00
C170   C     0.05889   0.93181   0.68006   0.00000  Uiso   1.00
C171   C     0.20369   0.78807   0.17998   0.00000  Uiso   1.00
C172   C     0.27427   0.73503   0.18016   0.00000  Uiso   1.00
O173   O     0.06737   0.12595   0.57459   0.00000  Uiso   1.00
O174   O     0.26546   0.54062   0.07474   0.00000  Uiso   1.00
O175   O     0.14416   0.36441   0.53885   0.00000  Uiso   1.00
O176   O     0.18432   0.29927   0.31987   0.00000  Uiso   1.00
O177   O     0.93157   0.87396   0.21460   0.00000  Uiso   1.00
O178   O     0.73481   0.45950   0.71440   0.00000  Uiso   1.00
O179   O     0.84672   0.63214   0.18075   0.00000  Uiso   1.00
O180   O     0.81898   0.70160   0.95905   0.00000  Uiso   1.00
H181   H     0.11311   0.05274   0.57716   0.00000  Uiso   1.00
H182   H     0.22023   0.61443   0.07691   0.00000  Uiso   1.00
H183   H     0.17493   0.43305   0.44750   0.00000  Uiso   1.00
H184   H     0.13425   0.32882   0.56566   0.00000  Uiso   1.00
H185   H     0.20231   0.46203   0.34797   0.00000  Uiso   1.00
H186   H     0.15587   0.23139   0.41189   0.00000  Uiso   1.00
H187   H     0.19510   0.33533   0.29345   0.00000  Uiso   1.00
H188   H     0.13058   0.20348   0.51245   0.00000  Uiso   1.00
H189   H     0.88690   0.94825   0.21681   0.00000  Uiso   1.00
H190   H     0.77975   0.38540   0.71661   0.00000  Uiso   1.00
H191   H     0.81570   0.56331   0.08933   0.00000  Uiso   1.00
H192   H     0.85848   0.66856   0.20701   0.00000  Uiso   1.00
H193   H     0.79193   0.53576   0.98915   0.00000  Uiso   1.00
H194   H     0.84960   0.77040   0.05069   0.00000  Uiso   1.00
H195   H     0.80731   0.66516   0.93291   0.00000  Uiso   1.00
H196   H     0.87385   0.79805   0.15101   0.00000  Uiso   1.00
H197   H     0.15853   0.85850   0.68002   0.00000  Uiso   1.00
H198   H     0.03130   0.95338   0.68014   0.00000  Uiso   1.00
H199   H     0.17472   0.80826   0.17988   0.00000  Uiso   1.00
H200   H     0.30192   0.71350   0.18018   0.00000  Uiso   1.00
N201   N     0.20745   0.40601   0.28327   0.00000  Uiso   1.00
N202   N     0.12393   0.25931   0.57638   0.00000  Uiso   1.00
N203   N     0.79190   0.59355   0.92337   0.00000  Uiso   1.00
N204   N     0.87384   0.73999   0.21657   0.00000  Uiso   1.00
C205   C     0.22186   0.11236   0.37462   0.00000  Uiso   1.00
C206   C     0.15762   0.07593   0.37313   0.00000  Uiso   1.00
C207   C     0.06276   0.02918   0.42309   0.00000  Uiso   1.00
C208   C     0.02968   0.96592   0.42303   0.00000  Uiso   1.00
C209   C     0.44449   0.22097   0.87473   0.00000  Uiso   1.00
C210   C     0.50882   0.25737   0.87315   0.00000  Uiso   1.00
C211   C     0.60386   0.30435   0.92322   0.00000  Uiso   1.00
C212   C     0.63720   0.36764   0.92323   0.00000  Uiso   1.00
C213   C     0.38875   0.21835   0.56069   0.00000  Uiso   1.00
C214   C     0.34810   0.19408   0.51423   0.00000  Uiso   1.00
C215   C     0.41836   0.21999   0.66365   0.00000  Uiso   1.00
C216   C     0.37415   0.19286   0.61703   0.00000  Uiso   1.00
C217   C     0.28990   0.14151   0.52376   0.00000  Uiso   1.00
C218   C     0.27525   0.11605   0.58019   0.00000  Uiso   1.00
C219   C     0.31568   0.14067   0.62674   0.00000  Uiso   1.00
C220   C     0.24662   0.11364   0.47658   0.00000  Uiso   1.00
C221   C     0.77797   0.88820   0.73473   0.00000  Uiso   1.00
C222   C     0.84234   0.92448   0.73329   0.00000  Uiso   1.00
C223   C     0.93724   0.97129   0.78355   0.00000  Uiso   1.00
C224   C     0.97078   0.03457   0.78357   0.00000  Uiso   1.00
C225   C     0.55568   0.77888   0.23474   0.00000  Uiso   1.00
C226   C     0.49129   0.74249   0.23344   0.00000  Uiso   1.00
C227   C     0.39619   0.69558   0.28363   0.00000  Uiso   1.00
C228   C     0.36270   0.63227   0.28364   0.00000  Uiso   1.00
C229   C     0.60862   0.78560   0.91937   0.00000  Uiso   1.00
C230   C     0.64949   0.80949   0.87308   0.00000  Uiso   1.00
C231   C     0.58026   0.78198   0.02298   0.00000  Uiso   1.00
C232   C     0.62443   0.80905   0.97642   0.00000  Uiso   1.00
C233   C     0.70925   0.85933   0.88359   0.00000  Uiso   1.00
C234   C     0.72506   0.88283   0.94064   0.00000  Uiso   1.00
C235   C     0.68422   0.85880   0.98696   0.00000  Uiso   1.00
C236   C     0.75346   0.88612   0.83697   0.00000  Uiso   1.00
C237   C     0.87868   0.74914   0.31997   0.00000  Uiso   1.00
C238   C     0.93181   0.87292   0.31994   0.00000  Uiso   1.00
C239   C     0.78807   0.58438   0.82002   0.00000  Uiso   1.00
C240   C     0.73503   0.46076   0.81984   0.00000  Uiso   1.00
O241   O     0.12595   0.05858   0.42541   0.00000  Uiso   1.00
O242   O     0.54062   0.27516   0.92526   0.00000  Uiso   1.00
O243   O     0.36441   0.22025   0.46115   0.00000  Uiso   1.00
O244   O     0.29927   0.11495   0.68013   0.00000  Uiso   1.00
O245   O     0.87396   0.94239   0.78540   0.00000  Uiso   1.00
O246   O     0.45950   0.72469   0.28560   0.00000  Uiso   1.00
O247   O     0.63214   0.78542   0.81925   0.00000  Uiso   1.00
O248   O     0.70160   0.88262   0.04095   0.00000  Uiso   1.00
H249   H     0.05274   0.93963   0.42284   0.00000  Uiso   1.00
H250   H     0.61443   0.39420   0.92309   0.00000  Uiso   1.00
H251   H     0.43305   0.25812   0.55250   0.00000  Uiso   1.00
H252   H     0.32882   0.19457   0.43434   0.00000  Uiso   1.00
H253   H     0.46203   0.25972   0.65203   0.00000  Uiso   1.00
H254   H     0.23139   0.07552   0.58811   0.00000  Uiso   1.00
H255   H     0.33533   0.14023   0.70655   0.00000  Uiso   1.00
H256   H     0.20348   0.07290   0.48755   0.00000  Uiso   1.00
H257   H     0.94825   0.06135   0.78319   0.00000  Uiso   1.00
H258   H     0.38540   0.60565   0.28339   0.00000  Uiso   1.00
H259   H     0.56331   0.74761   0.91067   0.00000  Uiso   1.00
H260   H     0.66856   0.81008   0.79299   0.00000  Uiso   1.00
H261   H     0.53576   0.74383   0.01085   0.00000  Uiso   1.00
H262   H     0.77040   0.92080   0.94931   0.00000  Uiso   1.00
H263   H     0.66516   0.85785   0.06709   0.00000  Uiso   1.00
H264   H     0.79805   0.92420   0.84899   0.00000  Uiso   1.00
H265   H     0.85850   0.69997   0.31998   0.00000  Uiso   1.00
H266   H     0.95338   0.92208   0.31986   0.00000  Uiso   1.00
H267   H     0.80826   0.63354   0.82012   0.00000  Uiso   1.00
H268   H     0.71350   0.41158   0.81982   0.00000  Uiso   1.00
N269   N     0.40601   0.19856   0.71673   0.00000  Uiso   1.00
N270   N     0.25931   0.13538   0.42362   0.00000  Uiso   1.00
N271   N     0.59355   0.80165   0.07663   0.00000  Uiso   1.00
N272   N     0.73999   0.86615   0.78343   0.00000  Uiso   1.00
C273   C     0.88764   0.10950   0.37462   0.00000  Uiso   1.00
C274   C     0.92407   0.08169   0.37313   0.00000  Uiso   1.00
C275   C     0.97082   0.03358   0.42309   0.00000  Uiso   1.00
C276   C     0.03408   0.06376   0.42303   0.00000  Uiso   1.00
C277   C     0.77903   0.22352   0.87473   0.00000  Uiso   1.00
C278   C     0.74263   0.25145   0.87315   0.00000  Uiso   1.00
C279   C     0.69565   0.29951   0.92322   0.00000  Uiso   1.00
C280   C     0.63236   0.26956   0.92323   0.00000  Uiso   1.00
C281   C     0.78165   0.17040   0.56069   0.00000  Uiso   1.00
C282   C     0.80592   0.15402   0.51423   0.00000  Uiso   1.00
C283   C     0.78001   0.19837   0.66365   0.00000  Uiso   1.00
C284   C     0.80714   0.18129   0.61703   0.00000  Uiso   1.00
C285   C     0.85849   0.14839   0.52376   0.00000  Uiso   1.00
C286   C     0.88395   0.15920   0.58019   0.00000  Uiso   1.00
C287   C     0.85933   0.17501   0.62674   0.00000  Uiso   1.00
C288   C     0.88636   0.13298   0.47658   0.00000  Uiso   1.00
C289   C     0.11180   0.88977   0.73473   0.00000  Uiso   1.00
C290   C     0.07552   0.91786   0.73329   0.00000  Uiso   1.00
C291   C     0.02871   0.96595   0.78355   0.00000  Uiso   1.00
C292   C     0.96543   0.93621   0.78357   0.00000  Uiso   1.00
C293   C     0.22112   0.77680   0.23474   0.00000  Uiso   1.00
C294   C     0.25751   0.74880   0.23344   0.00000  Uiso   1.00
C295   C     0.30442   0.70061   0.28363   0.00000  Uiso   1.00
C296   C     0.36773   0.73043   0.28364   0.00000  Uiso   1.00
C297   C     0.21440   0.82302   0.91937   0.00000  Uiso   1.00
C298   C     0.19051   0.84000   0.87308   0.00000  Uiso   1.00
C299   C     0.21802   0.79828   0.02298   0.00000  Uiso   1.00
C300   C     0.19095   0.81538   0.97642   0.00000  Uiso   1.00
C301   C     0.14067   0.84992   0.88359   0.00000  Uiso   1.00
C302   C     0.11717   0.84223   0.94064   0.00000  Uiso   1.00
C303   C     0.14120   0.82542   0.98696   0.00000  Uiso   1.00
C304   C     0.11388   0.86734   0.83697   0.00000  Uiso   1.00
C305   C     0.25086   0.12954   0.31997   0.00000  Uiso   1.00
C306   C     0.12708   0.05889   0.31994   0.00000  Uiso   1.00
C307   C     0.41562   0.20369   0.82002   0.00000  Uiso   1.00
C308   C     0.53924   0.27427   0.81984   0.00000  Uiso   1.00
O309   O     0.94142   0.06737   0.42541   0.00000  Uiso   1.00
O310   O     0.72484   0.26546   0.92526   0.00000  Uiso   1.00
O311   O     0.77975   0.14416   0.46115   0.00000  Uiso   1.00
O312   O     0.88505   0.18432   0.68013   0.00000  Uiso   1.00
O313   O     0.05761   0.93157   0.78540   0.00000  Uiso   1.00
O314   O     0.27531   0.73481   0.28560   0.00000  Uiso   1.00
O315   O     0.21458   0.84672   0.81925   0.00000  Uiso   1.00
O316   O     0.11738   0.81898   0.04095   0.00000  Uiso   1.00
H317   H     0.06037   0.11311   0.42284   0.00000  Uiso   1.00
H318   H     0.60580   0.22023   0.92309   0.00000  Uiso   1.00
H319   H     0.74188   0.17493   0.55250   0.00000  Uiso   1.00
H320   H     0.80543   0.13425   0.43434   0.00000  Uiso   1.00
H321   H     0.74028   0.20231   0.65203   0.00000  Uiso   1.00
H322   H     0.92448   0.15587   0.58811   0.00000  Uiso   1.00
H323   H     0.85977   0.19510   0.70655   0.00000  Uiso   1.00
H324   H     0.92710   0.13058   0.48755   0.00000  Uiso   1.00
H325   H     0.93865   0.88690   0.78319   0.00000  Uiso   1.00
H326   H     0.39435   0.77975   0.28339   0.00000  Uiso   1.00
H327   H     0.25239   0.81570   0.91067   0.00000  Uiso   1.00
H328   H     0.18992   0.85848   0.79299   0.00000  Uiso   1.00
H329   H     0.25617   0.79193   0.01085   0.00000  Uiso   1.00
H330   H     0.07920   0.84960   0.94931   0.00000  Uiso   1.00
H331   H     0.14215   0.80731   0.06709   0.00000  Uiso   1.00
H332   H     0.07580   0.87385   0.84899   0.00000  Uiso   1.00
H333   H     0.30003   0.15853   0.31998   0.00000  Uiso   1.00
H334   H     0.07792   0.03130   0.31986   0.00000  Uiso   1.00
H335   H     0.36646   0.17472   0.82012   0.00000  Uiso   1.00
H336   H     0.58842   0.30192   0.81982   0.00000  Uiso   1.00
N337   N     0.80144   0.20745   0.71673   0.00000  Uiso   1.00
N338   N     0.86462   0.12393   0.42362   0.00000  Uiso   1.00
N339   N     0.19835   0.79190   0.07663   0.00000  Uiso   1.00
N340   N     0.13385   0.87384   0.78343   0.00000  Uiso   1.00
C341   C     0.89050   0.77814   0.37462   0.00000  Uiso   1.00
C342   C     0.91831   0.84238   0.37313   0.00000  Uiso   1.00
C343   C     0.96642   0.93724   0.42309   0.00000  Uiso   1.00
C344   C     0.93624   0.97032   0.42303   0.00000  Uiso   1.00
C345   C     0.77648   0.55551   0.87473   0.00000  Uiso   1.00
C346   C     0.74855   0.49118   0.87315   0.00000  Uiso   1.00
C347   C     0.70049   0.39614   0.92322   0.00000  Uiso   1.00
C348   C     0.73044   0.36280   0.92323   0.00000  Uiso   1.00
C349   C     0.82960   0.61125   0.56069   0.00000  Uiso   1.00
C350   C     0.84598   0.65190   0.51423   0.00000  Uiso   1.00
C351   C     0.80163   0.58164   0.66365   0.00000  Uiso   1.00
C352   C     0.81871   0.62585   0.61703   0.00000  Uiso   1.00
C353   C     0.85161   0.71010   0.52376   0.00000  Uiso   1.00
C354   C     0.84080   0.72475   0.58019   0.00000  Uiso   1.00
C355   C     0.82499   0.68432   0.62674   0.00000  Uiso   1.00
C356   C     0.86702   0.75338   0.47658   0.00000  Uiso   1.00
C357   C     0.11023   0.22203   0.73473   0.00000  Uiso   1.00
C358   C     0.08214   0.15766   0.73329   0.00000  Uiso   1.00
C359   C     0.03405   0.06276   0.78355   0.00000  Uiso   1.00
C360   C     0.06379   0.02922   0.78357   0.00000  Uiso   1.00
C361   C     0.22320   0.44432   0.23474   0.00000  Uiso   1.00
C362   C     0.25120   0.50871   0.23344   0.00000  Uiso   1.00
C363   C     0.29939   0.60381   0.28363   0.00000  Uiso   1.00
C364   C     0.26957   0.63730   0.28364   0.00000  Uiso   1.00
C365   C     0.17698   0.39138   0.91937   0.00000  Uiso   1.00
C366   C     0.16000   0.35051   0.87308   0.00000  Uiso   1.00
C367   C     0.20172   0.41974   0.02298   0.00000  Uiso   1.00
C368   C     0.18462   0.37557   0.97642   0.00000  Uiso   1.00
C369   C     0.15008   0.29075   0.88359   0.00000  Uiso   1.00
C370   C     0.15777   0.27494   0.94064   0.00000  Uiso   1.00
C371   C     0.17458   0.31578   0.98696   0.00000  Uiso   1.00
C372   C     0.13266   0.24654   0.83697   0.00000  Uiso   1.00
C373   C     0.87046   0.12132   0.31997   0.00000  Uiso   1.00
C374   C     0.94111   0.06819   0.31994   0.00000  Uiso   1.00
C375   C     0.79631   0.21193   0.82002   0.00000  Uiso   1.00
C376   C     0.72573   0.26497   0.81984   0.00000  Uiso   1.00
O377   O     0.93263   0.87405   0.42541   0.00000  Uiso   1.00
O378   O     0.73454   0.45938   0.92526   0.00000  Uiso   1.00
O379   O     0.85584   0.63559   0.46115   0.00000  Uiso   1.00
O380   O     0.81568   0.70073   0.68013   0.00000  Uiso   1.00
O381   O     0.06843   0.12604   0.78540   0.00000  Uiso   1.00
O382   O     0.26519   0.54050   0.28560   0.00000  Uiso   1.00
O383   O     0.15328   0.36786   0.81925   0.00000  Uiso   1.00
O384   O     0.18102   0.29840   0.04095   0.00000  Uiso   1.00
H385   H     0.88689   0.94726   0.42284   0.00000  Uiso   1.00
H386   H     0.77977   0.38557   0.92309   0.00000  Uiso   1.00
H387   H     0.82507   0.56695   0.55250   0.00000  Uiso   1.00
H388   H     0.86575   0.67118   0.43434   0.00000  Uiso   1.00
H389   H     0.79769   0.53797   0.65203   0.00000  Uiso   1.00
H390   H     0.84413   0.76861   0.58811   0.00000  Uiso   1.00
H391   H     0.80490   0.66467   0.70655   0.00000  Uiso   1.00
H392   H     0.86942   0.79652   0.48755   0.00000  Uiso   1.00
H393   H     0.11310   0.05175   0.78319   0.00000  Uiso   1.00
H394   H     0.22025   0.61460   0.28339   0.00000  Uiso   1.00
H395   H     0.18430   0.43669   0.91067   0.00000  Uiso   1.00
H396   H     0.14152   0.33144   0.79299   0.00000  Uiso   1.00
H397   H     0.20807   0.46424   0.01085   0.00000  Uiso   1.00
H398   H     0.15040   0.22960   0.94931   0.00000  Uiso   1.00
H399   H     0.19269   0.33484   0.06709   0.00000  Uiso   1.00
H400   H     0.12615   0.20195   0.84899   0.00000  Uiso   1.00
H401   H     0.84147   0.14150   0.31998   0.00000  Uiso   1.00
H402   H     0.96870   0.04662   0.31986   0.00000  Uiso   1.00
H403   H     0.82528   0.19174   0.82012   0.00000  Uiso   1.00
H404   H     0.69808   0.28650   0.81982   0.00000  Uiso   1.00
N405   N     0.79255   0.59399   0.71673   0.00000  Uiso   1.00
N406   N     0.87607   0.74069   0.42362   0.00000  Uiso   1.00
N407   N     0.20810   0.40645   0.07663   0.00000  Uiso   1.00
N408   N     0.12616   0.26001   0.78343   0.00000  Uiso   1.00
loop_
_geom_bond_atom_site_label_1
_geom_bond_atom_site_label_2
_geom_bond_distance
_geom_bond_site_symmetry_2
_ccdc_geom_bond_type
C1     C2      1.422   .     D
C1     N66     1.399   .     S
C1     C101    1.409   .     S
C2     O37     1.388   .     S
C2     C102    1.394   .     S
C3     O37     1.396   .     S
C3     C72     1.397   .     S
C3     C4      1.396   1_565 D
C4     H45     1.089   .     S
C4     C3      1.396   1_545 D
C4     C139    1.397   1_655 S
C5     C6      1.424   .     D
C5     N271    1.399   .     S
C5     C103    1.409   .     S
C6     O38     1.386   .     S
C6     C104    1.395   .     S
C7     C8      1.397   .     S
C7     O38     1.397   .     S
C7     C76     1.398   .     D
C8     H46     1.089   .     S
C8     C143    1.398   .     D
C9     C10     1.396   .     S
C9     C12     1.410   .     D
C9     H47     1.092   .     S
C10    C13     1.433   .     D
C10    O39     1.350   .     S
C11    C12     1.453   .     S
C11    H49     1.098   .     S
C11    N65     1.306   .     D
C12    C15     1.433   .     S
C13    C14     1.411   .     S
C13    C16     1.452   .     S
C14    C15     1.395   .     D
C14    H50     1.092   .     S
C15    O40     1.352   .     S
C16    H52     1.099   .     S
C16    N66     1.306   .     D
C17    C18     1.424   .     S
C17    N68     1.398   .     S
C17    C305    1.409   .     D
C18    O41     1.385   .     S
C18    C306    1.395   .     D
C19    O41     1.398   .     S
C19    C88     1.398   .     S
C19    C20     1.397   1_545 D
C20    H53     1.089   .     S
C20    C19     1.397   1_565 D
C20    C155    1.398   1_455 S
C21    C22     1.425   .     D
C21    N269    1.400   .     S
C21    C307    1.408   .     S
C22    O42     1.387   .     S
C22    C308    1.396   .     S
C23    C24     1.397   .     S
C23    O42     1.399   .     S
C23    C92     1.399   .     D
C24    H54     1.089   .     S
C24    C159    1.399   .     D
C25    C26     1.395   .     S
C25    C28     1.411   .     D
C25    H55     1.091   .     S
C26    C29     1.433   .     D
C26    O43     1.350   .     S
C27    H57     1.098   .     S
C27    N67     1.307   .     D
C27    C28     1.451   1_556 S
C28    C31     1.433   .     S
C28    C27     1.451   1_554 S
C29    C30     1.411   .     S
C29    C32     1.452   .     S
C30    C31     1.396   .     D
C30    H58     1.092   .     S
C31    O44     1.352   1_554 S
C32    H60     1.098   .     S
C32    N68     1.307   .     D
C33    H61     1.090   .     S
C33    C137    1.409   .     S
C33    C357    1.409   .     D
C34    H62     1.087   .     S
C34    C138    1.394   .     S
C34    C358    1.395   .     D
C35    H63     1.090   .     S
C35    C141    1.409   .     D
C35    C361    1.408   .     S
C36    H64     1.088   .     S
C36    C142    1.395   .     D
C36    C362    1.396   .     S
O39    H48     1.017   .     S
O40    H51     1.017   .     S
O43    H56     1.017   .     S
O44    H59     1.016   .     S
O44    C31     1.352   1_556 S
N65    C225    1.400   .     S
N67    C209    1.399   .     S
C69    C70     1.422   .     D
C69    N134    1.399   .     S
C69    C169    1.409   .     S
C70    O105    1.388   .     S
C70    C170    1.394   .     S
C71    O105    1.396   .     S
C71    C72     1.396   1_455 D
C71    C140    1.397   1_565 S
C72    H113    1.089   .     S
C72    C71     1.396   1_655 D
C73    C74     1.424   .     D
C73    N339    1.399   .     S
C73    C171    1.409   .     S
C74    O106    1.386   .     S
C74    C172    1.395   .     S
C75    C76     1.397   .     S
C75    O106    1.397   .     S
C75    C144    1.398   .     D
C76    H114    1.089   .     S
C77    C78     1.396   .     S
C77    C80     1.410   .     D
C77    H115    1.092   .     S
C78    C81     1.433   .     D
C78    O107    1.350   .     S
C79    C80     1.453   .     S
C79    H117    1.098   .     S
C79    N133    1.306   .     D
C80    C83     1.433   .     S
C81    C82     1.411   .     S
C81    C84     1.452   .     S
C82    C83     1.395   .     D
C82    H118    1.092   .     S
C83    O108    1.352   .     S
C84    H120    1.099   .     S
C84    N134    1.306   .     D
C85    C86     1.424   .     S
C85    N136    1.398   .     S
C85    C373    1.409   .     D
C86    O109    1.385   .     S
C86    C374    1.395   .     D
C87    O109    1.398   .     S
C87    C88     1.397   1_655 D
C87    C156    1.398   1_545 S
C88    H121    1.089   .     S
C88    C87     1.397   1_455 D
C89    C90     1.425   .     D
C89    N337    1.400   .     S
C89    C375    1.408   .     S
C90    O110    1.387   .     S
C90    C376    1.396   .     S
C91    C92     1.397   .     S
C91    O110    1.399   .     S
C91    C160    1.399   .     D
C92    H122    1.089   .     S
C93    C94     1.395   .     S
C93    C96     1.411   .     D
C93    H123    1.091   .     S
C94    C97     1.433   .     D
C94    O111    1.350   .     S
C95    H125    1.098   .     S
C95    N135    1.307   .     D
C95    C96     1.451   1_556 S
C96    C99     1.433   .     S
C96    C95     1.451   1_554 S
C97    C98     1.411   .     S
C97    C100    1.452   .     S
C98    C99     1.396   .     D
C98    H126    1.092   .     S
C99    O112    1.352   1_554 S
C100   H128    1.098   .     S
C100   N136    1.307   .     D
C101   H129    1.090   .     S
C101   C221    1.409   .     D
C102   H130    1.087   .     S
C102   C222    1.395   .     D
C103   H131    1.090   .     S
C103   C225    1.408   .     D
C104   H132    1.088   .     S
C104   C226    1.396   .     D
O107   H116    1.017   .     S
O108   H119    1.017   .     S
O111   H124    1.017   .     S
O112   H127    1.016   .     S
O112   C99     1.352   1_556 S
N133   C293    1.400   .     S
N135   C277    1.399   .     S
C137   C138    1.422   .     D
C137   N202    1.399   .     S
C138   O173    1.388   .     S
C139   O173    1.396   .     S
C139   C140    1.396   .     D
C139   C4      1.397   1_455 S
C140   H181    1.089   .     S
C140   C71     1.397   1_545 S
C141   C142    1.424   .     S
C141   N407    1.399   .     S
C142   O174    1.386   .     S
C143   C144    1.397   .     S
C143   O174    1.397   .     S
C144   H182    1.089   .     S
C145   C146    1.396   .     D
C145   C148    1.410   .     S
C145   H183    1.092   .     S
C146   C149    1.433   .     S
C146   O175    1.350   .     S
C147   C148    1.453   .     S
C147   H185    1.098   .     S
C147   N201    1.306   .     D
C148   C151    1.433   .     D
C149   C150    1.411   .     D
C149   C152    1.452   .     S
C150   C151    1.395   .     S
C150   H186    1.092   .     S
C151   O176    1.352   .     S
C152   H188    1.099   .     S
C152   N202    1.306   .     D
C153   C154    1.424   .     D
C153   N204    1.398   .     S
C153   C237    1.409   .     S
C154   O177    1.385   .     S
C154   C238    1.395   .     S
C155   O177    1.398   .     S
C155   C156    1.397   .     D
C155   C20     1.398   1_655 S
C156   H189    1.089   .     S
C156   C87     1.398   1_565 S
C157   C158    1.425   .     D
C157   N405    1.400   .     S
C157   C239    1.408   .     S
C158   O178    1.387   .     S
C158   C240    1.396   .     S
C159   C160    1.397   .     S
C159   O178    1.399   .     S
C160   H190    1.089   .     S
C161   C162    1.395   .     S
C161   C164    1.411   .     D
C161   H191    1.091   .     S
C162   C165    1.433   .     D
C162   O179    1.350   .     S
C163   H193    1.098   .     S
C163   N203    1.307   .     D
C163   C164    1.451   1_556 S
C164   C167    1.433   .     S
C164   C163    1.451   1_554 S
C165   C166    1.411   .     S
C165   C168    1.452   .     S
C166   C167    1.396   .     D
C166   H194    1.092   .     S
C167   O180    1.352   1_554 S
C168   H196    1.098   .     S
C168   N204    1.307   .     D
C169   H197    1.090   .     S
C169   C289    1.409   .     D
C170   H198    1.087   .     S
C170   C290    1.395   .     D
C171   H199    1.090   .     S
C171   C293    1.408   .     D
C172   H200    1.088   .     S
C172   C294    1.396   .     D
O175   H184    1.017   .     S
O176   H187    1.017   .     S
O179   H192    1.017   .     S
O180   H195    1.016   .     S
O180   C167    1.352   1_556 S
N201   C361    1.400   .     S
N203   C345    1.399   .     S
C205   C206    1.422   .     D
C205   N270    1.399   .     S
C205   C305    1.409   .     S
C206   O241    1.388   .     S
C206   C306    1.394   .     S
C207   O241    1.396   .     S
C207   C276    1.397   .     S
C207   C208    1.396   1_545 D
C208   H249    1.089   .     S
C208   C207    1.396   1_565 D
C208   C343    1.397   1_455 S
C209   C210    1.424   .     S
C209   C307    1.409   .     D
C210   O242    1.386   .     S
C210   C308    1.395   .     D
C211   C212    1.397   .     S
C211   O242    1.397   .     S
C211   C280    1.398   .     D
C212   H250    1.089   .     S
C212   C347    1.398   .     D
C213   C214    1.396   .     S
C213   C216    1.410   .     D
C213   H251    1.092   .     S
C214   C217    1.433   .     D
C214   O243    1.350   .     S
C215   C216    1.453   .     S
C215   H253    1.098   .     S
C215   N269    1.306   .     D
C216   C219    1.433   .     S
C217   C218    1.411   .     S
C217   C220    1.452   .     S
C218   C219    1.395   .     D
C218   H254    1.092   .     S
C219   O244    1.352   .     S
C220   H256    1.099   .     S
C220   N270    1.306   .     D
C221   C222    1.424   .     S
C221   N272    1.398   .     S
C222   O245    1.385   .     S
C223   O245    1.398   .     S
C223   C292    1.398   .     S
C223   C224    1.397   1_565 D
C224   H257    1.089   .     S
C224   C223    1.397   1_545 D
C224   C359    1.398   1_655 S
C225   C226    1.425   .     S
C226   O246    1.387   .     S
C227   C228    1.397   .     S
C227   O246    1.399   .     S
C227   C296    1.399   .     D
C228   H258    1.089   .     S
C228   C363    1.399   .     D
C229   C230    1.395   .     S
C229   C232    1.411   .     D
C229   H259    1.091   .     S
C230   C233    1.433   .     D
C230   O247    1.350   .     S
C231   H261    1.098   .     S
C231   N271    1.307   .     D
C231   C232    1.451   1_554 S
C232   C235    1.433   .     S
C232   C231    1.451   1_556 S
C233   C234    1.411   .     S
C233   C236    1.452   .     S
C234   C235    1.396   .     D
C234   H262    1.092   .     S
C235   O248    1.352   1_556 S
C236   H264    1.098   .     S
C236   N272    1.307   .     D
C237   H265    1.090   .     S
C237   C341    1.409   .     D
C238   H266    1.087   .     S
C238   C342    1.394   .     D
C239   H267    1.090   .     S
C239   C345    1.409   .     D
C240   H268    1.088   .     S
C240   C346    1.395   .     D
O243   H252    1.017   .     S
O244   H255    1.017   .     S
O247   H260    1.017   .     S
O248   H263    1.016   .     S
O248   C235    1.352   1_554 S
C273   C274    1.422   .     D
C273   N338    1.399   .     S
C273   C373    1.409   .     S
C274   O309    1.388   .     S
C274   C374    1.394   .     S
C275   O309    1.396   .     S
C275   C276    1.396   1_655 D
C275   C344    1.397   1_545 S
C276   H317    1.089   .     S
C276   C275    1.396   1_455 D
C277   C278    1.424   .     S
C277   C375    1.409   .     D
C278   O310    1.386   .     S
C278   C376    1.395   .     D
C279   C280    1.397   .     S
C279   O310    1.397   .     S
C279   C348    1.398   .     D
C280   H318    1.089   .     S
C281   C282    1.396   .     S
C281   C284    1.410   .     D
C281   H319    1.092   .     S
C282   C285    1.433   .     D
C282   O311    1.350   .     S
C283   C284    1.453   .     S
C283   H321    1.098   .     S
C283   N337    1.306   .     D
C284   C287    1.433   .     S
C285   C286    1.411   .     S
C285   C288    1.452   .     S
C286   C287    1.395   .     D
C286   H322    1.092   .     S
C287   O312    1.352   .     S
C288   H324    1.099   .     S
C288   N338    1.306   .     D
C289   C290    1.424   .     S
C289   N340    1.398   .     S
C290   O313    1.385   .     S
C291   O313    1.398   .     S
C291   C292    1.397   1_455 D
C291   C360    1.398   1_565 S
C292   H325    1.089   .     S
C292   C291    1.397   1_655 D
C293   C294    1.425   .     S
C294   O314    1.387   .     S
C295   C296    1.397   .     S
C295   O314    1.399   .     S
C295   C364    1.399   .     D
C296   H326    1.089   .     S
C297   C298    1.395   .     S
C297   C300    1.411   .     D
C297   H327    1.091   .     S
C298   C301    1.433   .     D
C298   O315    1.350   .     S
C299   H329    1.098   .     S
C299   N339    1.307   .     D
C299   C300    1.451   1_554 S
C300   C303    1.433   .     S
C300   C299    1.451   1_556 S
C301   C302    1.411   .     S
C301   C304    1.452   .     S
C302   C303    1.396   .     D
C302   H330    1.092   .     S
C303   O316    1.352   1_556 S
C304   H332    1.098   .     S
C304   N340    1.307   .     D
C305   H333    1.090   .     S
C306   H334    1.087   .     S
C307   H335    1.090   .     S
C308   H336    1.088   .     S
O311   H320    1.017   .     S
O312   H323    1.017   .     S
O315   H328    1.017   .     S
O316   H331    1.016   .     S
O316   C303    1.352   1_554 S
C341   C342    1.422   .     S
C341   N406    1.399   .     S
C342   O377    1.388   .     S
C343   O377    1.396   .     S
C343   C344    1.396   .     D
C343   C208    1.397   1_655 S
C344   H385    1.089   .     S
C344   C275    1.397   1_565 S
C345   C346    1.424   .     S
C346   O378    1.386   .     S
C347   C348    1.397   .     S
C347   O378    1.397   .     S
C348   H386    1.089   .     S
C349   C350    1.396   .     D
C349   C352    1.410   .     S
C349   H387    1.092   .     S
C350   C353    1.433   .     S
C350   O379    1.350   .     S
C351   C352    1.453   .     S
C351   H389    1.098   .     S
C351   N405    1.306   .     D
C352   C355    1.433   .     D
C353   C354    1.411   .     D
C353   C356    1.452   .     S
C354   C355    1.395   .     S
C354   H390    1.092   .     S
C355   O380    1.352   .     S
C356   H392    1.099   .     S
C356   N406    1.306   .     D
C357   C358    1.424   .     S
C357   N408    1.398   .     S
C358   O381    1.385   .     S
C359   O381    1.398   .     S
C359   C360    1.397   .     D
C359   C224    1.398   1_455 S
C360   H393    1.089   .     S
C360   C291    1.398   1_545 S
C361   C362    1.425   .     D
C362   O382    1.387   .     S
C363   C364    1.397   .     S
C363   O382    1.399   .     S
C364   H394    1.089   .     S
C365   C366    1.395   .     D
C365   C368    1.411   .     S
C365   H395    1.091   .     S
C366   C369    1.433   .     S
C366   O383    1.350   .     S
C367   H397    1.098   .     S
C367   N407    1.307   .     D
C367   C368    1.451   1_554 S
C368   C371    1.433   .     D
C368   C367    1.451   1_556 S
C369   C370    1.411   .     D
C369   C372    1.452   .     S
C370   C371    1.396   .     S
C370   H398    1.092   .     S
C371   O384    1.352   1_556 S
C372   H400    1.098   .     S
C372   N408    1.307   .     D
C373   H401    1.090   .     S
C374   H402    1.087   .     S
C375   H403    1.090   .     S
C376   H404    1.088   .     S
O379   H388    1.017   .     S
O380   H391    1.017   .     S
O383   H396    1.017   .     S
O384   H399    1.016   .     S
O384   C371    1.352   1_554 S
