data_924
_audit_creation_date              2023-09-08
_audit_creation_method            'Materials Studio'
_symmetry_space_group_name_H-M    'P1'
_symmetry_Int_Tables_number       1
_symmetry_cell_setting            triclinic
loop_
_symmetry_equiv_pos_as_xyz
  x,y,z
_cell_length_a                    50.7000
_cell_length_b                    50.0000
_cell_length_c                    9.7000
_cell_angle_alpha                 144.1000
_cell_angle_beta                  88.3000
_cell_angle_gamma                 90.8000
loop_
_atom_site_label
_atom_site_type_symbol
_atom_site_fract_x
_atom_site_fract_y
_atom_site_fract_z
_atom_site_U_iso_or_equiv
_atom_site_adp_type
_atom_site_occupancy
C11    C     0.26324   1.81356   2.06795   0.00000  Uiso   1.00
C22    C     0.25715   1.21672   0.38597   0.00000  Uiso   1.00
C33    C     0.68848   1.37635   1.88266   0.00000  Uiso   1.00
C44    C     0.27256   1.85363   2.17287   0.00000  Uiso   1.00
C55    C     0.25938   1.87316   2.14431   0.00000  Uiso   1.00
C66    C     0.23657   1.85317   2.01106   0.00000  Uiso   1.00
C77    C     0.22604   1.81530   1.92216   0.00000  Uiso   1.00
C88    C     0.23932   1.79556   1.94985   0.00000  Uiso   1.00
C99    C     0.71402   1.39191   1.97102   0.00000  Uiso   1.00
C1010  C     0.72752   1.37788   2.02879   0.00000  Uiso   1.00
C1111  C     0.71581   1.34805   2.00016   0.00000  Uiso   1.00
C1212  C     0.69016   1.33282   1.91413   0.00000  Uiso   1.00
C1313  C     0.67667   1.34673   1.85515   0.00000  Uiso   1.00
C1414  C     0.68411   1.69256   1.00071   0.00000  Uiso   1.00
C1515  C     0.71057   1.68039   0.92035   0.00000  Uiso   1.00
C1616  C     0.72290   1.69349   0.85115   0.00000  Uiso   1.00
C1717  C     0.70899   1.71844   0.85639   0.00000  Uiso   1.00
C1818  C     0.68256   1.73106   0.93939   0.00000  Uiso   1.00
C1919  C     0.67038   1.71870   1.01343   0.00000  Uiso   1.00
C2020  C     0.22948   1.21702   0.38642   0.00000  Uiso   1.00
C2121  C     0.21481   1.20198   0.43849   0.00000  Uiso   1.00
C2222  C     0.22749   1.18579   0.48869   0.00000  Uiso   1.00
C2323  C     0.25521   1.18590   0.49014   0.00000  Uiso   1.00
C2424  C     0.26987   1.20116   0.43906   0.00000  Uiso   1.00
C2525  C     0.46709   1.43901   0.76610   0.00000  Uiso   1.00
C2626  C     0.49709   1.43465   0.74822   0.00000  Uiso   1.00
C2727  C     0.48986   1.51875   1.48736   0.00000  Uiso   1.00
C2828  C     0.47064   1.55574   1.69820   0.00000  Uiso   1.00
C2929  C     0.61021   1.43962   1.20449   0.00000  Uiso   1.00
C3030  C     0.61262   1.48704   1.37878   0.00000  Uiso   1.00
C3131  C     0.59895   1.50756   1.35487   0.00000  Uiso   1.00
C3232  C     0.58357   1.48070   1.15689   0.00000  Uiso   1.00
C3333  C     0.58204   1.43364   0.98248   0.00000  Uiso   1.00
C3434  C     0.59501   1.41327   1.00703   0.00000  Uiso   1.00
C3535  C     0.62306   1.41913   1.22972   0.00000  Uiso   1.00
C3636  C     0.63889   1.44496   1.42373   0.00000  Uiso   1.00
C3737  C     0.64185   1.49161   1.59176   0.00000  Uiso   1.00
C3838  C     0.62881   1.51250   1.57088   0.00000  Uiso   1.00
C3939  C     0.59858   1.55762   1.54304   0.00000  Uiso   1.00
C4040  C     0.61106   1.57781   1.51066   0.00000  Uiso   1.00
C4141  C     0.60817   1.62538   1.68812   0.00000  Uiso   1.00
C4242  C     0.59408   1.65228   1.89805   0.00000  Uiso   1.00
C4343  C     0.58248   1.63226   1.93136   0.00000  Uiso   1.00
C4444  C     0.58392   1.58488   1.75211   0.00000  Uiso   1.00
C4545  C     0.61963   1.64554   1.65445   0.00000  Uiso   1.00
C4646  C     0.63497   1.61937   1.45037   0.00000  Uiso   1.00
C4747  C     0.63845   1.57254   1.27853   0.00000  Uiso   1.00
C4848  C     0.62651   1.55187   1.30679   0.00000  Uiso   1.00
C4949  C     0.41115   1.58285   1.33958   0.00000  Uiso   1.00
C5050  C     0.40483   1.56052   1.37232   0.00000  Uiso   1.00
C5151  C     0.42119   1.52414   1.26471   0.00000  Uiso   1.00
C5252  C     0.44279   1.50903   1.11824   0.00000  Uiso   1.00
C5353  C     0.44941   1.53288   1.09653   0.00000  Uiso   1.00
C5454  C     0.43361   1.56921   1.20433   0.00000  Uiso   1.00
C5555  C     0.39492   1.61856   1.44265   0.00000  Uiso   1.00
C5656  C     0.37211   1.63184   1.57445   0.00000  Uiso   1.00
C5757  C     0.36587   1.60979   1.60681   0.00000  Uiso   1.00
C5858  C     0.38216   1.57487   1.50943   0.00000  Uiso   1.00
C5959  C     0.41618   1.50119   1.30297   0.00000  Uiso   1.00
C6060  C     0.39755   1.46604   1.17047   0.00000  Uiso   1.00
C6161  C     0.39294   1.44610   1.21855   0.00000  Uiso   1.00
C6262  C     0.40735   1.46037   1.39123   0.00000  Uiso   1.00
C6363  C     0.42566   1.49517   1.52158   0.00000  Uiso   1.00
C6464  C     0.43008   1.51602   1.47974   0.00000  Uiso   1.00
C6565  C     0.37337   1.41319   1.09864   0.00000  Uiso   1.00
C6666  C     0.35802   1.40004   0.93234   0.00000  Uiso   1.00
C6767  C     0.36327   1.41883   0.87998   0.00000  Uiso   1.00
C6868  C     0.38285   1.45123   0.99632   0.00000  Uiso   1.00
O6969  O     0.45781   1.47116   1.00381   0.00000  Uiso   1.00
O7070  O     0.51601   1.53513   1.54826   0.00000  Uiso   1.00
C7171  C     0.52799   1.53387   1.67382   0.00000  Uiso   1.00
C7272  C     0.54524   1.57587   1.86420   0.00000  Uiso   1.00
O7373  O     0.57230   1.56412   1.78249   0.00000  Uiso   1.00
O7474  O     0.44597   1.55473   1.62581   0.00000  Uiso   1.00
O7575  O     0.50860   1.47466   0.86067   0.00000  Uiso   1.00
C7676  C     0.53624   1.47358   0.87433   0.00000  Uiso   1.00
C7777  C     0.54300   1.49563   1.10329   0.00000  Uiso   1.00
O7878  O     0.57103   1.50106   1.12971   0.00000  Uiso   1.00
C7979  C     0.65195   1.42371   1.45448   0.00000  Uiso   1.00
C8080  C     0.64745   1.64075   1.41617   0.00000  Uiso   1.00
C8181  C     0.35446   1.66801   1.67305   0.00000  Uiso   1.00
C8282  C     0.33551   1.36888   0.82363   0.00000  Uiso   1.00
C8383  C     0.32758   1.65961   1.62142   0.00000  Uiso   1.00
C8484  C     0.31127   1.69258   1.69952   0.00000  Uiso   1.00
C8585  C     0.32148   1.73474   1.83451   0.00000  Uiso   1.00
C8686  C     0.34816   1.74368   1.89295   0.00000  Uiso   1.00
C8787  C     0.36457   1.71044   1.81142   0.00000  Uiso   1.00
C8888  C     0.32995   1.33546   0.58514   0.00000  Uiso   1.00
C8989  C     0.30767   1.30830   0.48833   0.00000  Uiso   1.00
C9090  C     0.29067   1.31403   0.62794   0.00000  Uiso   1.00
C9191  C     0.29641   1.34675   0.86457   0.00000  Uiso   1.00
C9292  C     0.31859   1.37396   0.96167   0.00000  Uiso   1.00
C9393  C     0.63849   1.39232   1.40802   0.00000  Uiso   1.00
C9494  C     0.65032   1.37429   1.44973   0.00000  Uiso   1.00
C9595  C     0.67572   1.38751   1.53952   0.00000  Uiso   1.00
C9696  C     0.68931   1.41833   1.58309   0.00000  Uiso   1.00
C9797  C     0.67763   1.43604   1.53950   0.00000  Uiso   1.00
C9898  C     0.67343   1.62875   1.32465   0.00000  Uiso   1.00
C9999  C     0.68495   1.64763   1.28462   0.00000  Uiso   1.00
C100100 C     0.67085   1.67917   1.33746   0.00000  Uiso   1.00
C101101 C     0.64505   1.69172   1.43163   0.00000  Uiso   1.00
C102102 C     0.63340   1.67263   1.47056   0.00000  Uiso   1.00
C103103 C     0.30489   1.76799   1.89360   0.00000  Uiso   1.00
C104104 C     0.28039   1.78691   2.05441   0.00000  Uiso   1.00
C105105 C     0.28787   1.81589   2.29190   0.00000  Uiso   1.00
C106106 C     0.26626   1.28580   0.52585   0.00000  Uiso   1.00
C107107 C     0.27304   1.23473   0.33900   0.00000  Uiso   1.00
C108108 C     0.26844   1.20677   0.09891   0.00000  Uiso   1.00
C109109 C     0.68293   1.69760   1.28231   0.00000  Uiso   1.00
C110110 C     0.67039   1.67663   1.06578   0.00000  Uiso   1.00
C111111 C     0.67119   1.62638   0.86017   0.00000  Uiso   1.00
C112112 C     0.68794   1.37032   1.59822   0.00000  Uiso   1.00
C113113 C     0.67410   1.39077   1.81502   0.00000  Uiso   1.00
C114114 C     0.67239   1.44094   2.01842   0.00000  Uiso   1.00
N115115 N     0.29369   1.83872   2.47865   0.00000  Uiso   1.00
N116116 N     0.26483   1.18496  -0.08930   0.00000  Uiso   1.00
N117117 N     0.67107   1.48028   2.17700   0.00000  Uiso   1.00
N118118 N     0.67185   1.58699   0.69968   0.00000  Uiso   1.00
C119119 C     0.76232   1.29990   2.13554   0.00000  Uiso   1.00
C120120 C     0.75100   0.75942   0.65585   0.00000  Uiso   1.00
C121121 C     1.20398   0.90608   1.85886   0.00000  Uiso   1.00
C122122 C     0.76217   1.34624   2.29273   0.00000  Uiso   1.00
C123123 C     0.74672   1.36201   2.25106   0.00000  Uiso   1.00
C124124 C     0.73079   1.33192   2.05325   0.00000  Uiso   1.00
C125125 C     0.73027   1.28588   1.90049   0.00000  Uiso   1.00
C126126 C     0.74596   1.27000   1.94081   0.00000  Uiso   1.00
C127127 C     1.23114   0.89658   1.82676   0.00000  Uiso   1.00
C128128 C     1.24159   0.87943   1.87648   0.00000  Uiso   1.00
C129129 C     1.22504   0.87011   1.95254   0.00000  Uiso   1.00
C130130 C     1.19773   0.87685   1.97027   0.00000  Uiso   1.00
C131131 C     1.18732   0.89555   1.92845   0.00000  Uiso   1.00
C132132 C     1.18271   1.13733   0.64027   0.00000  Uiso   1.00
C133133 C     1.20688   1.11641   0.51321   0.00000  Uiso   1.00
C134134 C     1.22116   1.13165   0.46100   0.00000  Uiso   1.00
C135135 C     1.21192   1.16890   0.53953   0.00000  Uiso   1.00
C136136 C     1.18779   1.18996   0.66794   0.00000  Uiso   1.00
C137137 C     1.17335   1.17430   0.71752   0.00000  Uiso   1.00
C138138 C     0.73098   0.78759   0.83209   0.00000  Uiso   1.00
C139139 C     0.71683   0.77389   0.89336   0.00000  Uiso   1.00
C140140 C     0.72229   0.73157   0.77842   0.00000  Uiso   1.00
C141141 C     0.74143   0.70248   0.59372   0.00000  Uiso   1.00
C142142 C     0.75571   0.71633   0.53413   0.00000  Uiso   1.00
C143143 C     0.96710   0.93489   0.45415   0.00000  Uiso   1.00
C144144 C     0.99097   0.96344   0.61075   0.00000  Uiso   1.00
C145145 C     0.97650   1.05965   1.52869   0.00000  Uiso   1.00
C146146 C     0.96804   1.05649   1.36520   0.00000  Uiso   1.00
C147147 C     1.09458   0.94865   1.17442   0.00000  Uiso   1.00
C148148 C     1.09641   0.99530   1.33338   0.00000  Uiso   1.00
C149149 C     1.08186   1.01251   1.29405   0.00000  Uiso   1.00
C150150 C     1.06593   0.98340   1.09663   0.00000  Uiso   1.00
C151151 C     1.06447   0.93713   0.93961   0.00000  Uiso   1.00
C152152 C     1.07835   0.92008   0.98014   0.00000  Uiso   1.00
C153153 C     1.10970   0.93091   1.20758   0.00000  Uiso   1.00
C154154 C     1.12714   0.95890   1.39448   0.00000  Uiso   1.00
C155155 C     1.12884   1.00488   1.54978   0.00000  Uiso   1.00
C156156 C     1.11352   1.02311   1.52244   0.00000  Uiso   1.00
C157157 C     1.08386   1.06075   1.45199   0.00000  Uiso   1.00
C158158 C     1.09893   1.07315   1.38506   0.00000  Uiso   1.00
C159159 C     1.09920   1.11937   1.53610   0.00000  Uiso   1.00
C160160 C     1.08541   1.15257   1.75369   0.00000  Uiso   1.00
C161161 C     1.07130   1.14019   1.82160   0.00000  Uiso   1.00
C162162 C     1.07005   1.09439   1.67045   0.00000  Uiso   1.00
C163163 C     1.11348   1.13186   1.46849   0.00000  Uiso   1.00
C164164 C     1.12834   1.09919   1.25592   0.00000  Uiso   1.00
C165165 C     1.12887   1.05383   1.11155   0.00000  Uiso   1.00
C166166 C     1.11410   1.04076   1.17313   0.00000  Uiso   1.00
C167167 C     0.90113   1.06673   1.10248   0.00000  Uiso   1.00
C168168 C     0.90531   1.04283   1.12723   0.00000  Uiso   1.00
C169169 C     0.92065   1.00197   0.95339   0.00000  Uiso   1.00
C170170 C     0.93160   0.98527   0.75758   0.00000  Uiso   1.00
C171171 C     0.92721   1.00959   0.73667   0.00000  Uiso   1.00
C172172 C     0.91228   1.05002   0.90814   0.00000  Uiso   1.00
C173173 C     0.88570   1.10692   1.27158   0.00000  Uiso   1.00
C174174 C     0.87435   1.12400   1.46703   0.00000  Uiso   1.00
C175175 C     0.87873   1.10049   1.49218   0.00000  Uiso   1.00
C176176 C     0.89397   1.06042   1.32483   0.00000  Uiso   1.00
C177177 C     0.92623   0.97634   0.97434   0.00000  Uiso   1.00
C178178 C     0.90737   0.94734   0.91650   0.00000  Uiso   1.00
C179179 C     0.91428   0.92203   0.92939   0.00000  Uiso   1.00
C180180 C     0.93965   0.92524   0.99500   0.00000  Uiso   1.00
C181181 C     0.95795   0.95424   1.05393   0.00000  Uiso   1.00
C182182 C     0.95116   0.98072   1.05105   0.00000  Uiso   1.00
C183183 C     0.89571   0.89397   0.87785   0.00000  Uiso   1.00
C184184 C     0.87006   0.89113   0.81687   0.00000  Uiso   1.00
C185185 C     0.86323   0.91589   0.80269   0.00000  Uiso   1.00
C186186 C     0.88172   0.94329   0.84905   0.00000  Uiso   1.00
O187187 O     0.94490   0.94260   0.57963   0.00000  Uiso   1.00
O188188 O     1.00233   1.04133   1.46385   0.00000  Uiso   1.00
C189189 C     1.01263   1.05219   1.63967   0.00000  Uiso   1.00
C190190 C     1.02948   1.09503   1.80840   0.00000  Uiso   1.00
O191191 O     1.05688   1.08217   1.74300   0.00000  Uiso   1.00
O192192 O     0.96973   1.01085   1.12065   0.00000  Uiso   1.00
O193193 O     1.00872   0.93630   0.57390   0.00000  Uiso   1.00
C194194 C     1.03181   0.96065   0.70450   0.00000  Uiso   1.00
C195195 C     1.02914   0.98456   0.94413   0.00000  Uiso   1.00
O196196 O     1.05460   1.00053   1.04745   0.00000  Uiso   1.00
C197197 C     1.14397   0.94046   1.42750   0.00000  Uiso   1.00
C198198 C     1.14269   1.11198   1.18053   0.00000  Uiso   1.00
C199199 C     0.85777   1.16620   1.64410   0.00000  Uiso   1.00
C200200 C     0.85029   0.86330   0.77537   0.00000  Uiso   1.00
C201201 C     0.83881   1.17319   1.57228   0.00000  Uiso   1.00
C202202 C     0.82318   1.21294   1.73926   0.00000  Uiso   1.00
C203203 C     0.82632   1.24641   1.98052   0.00000  Uiso   1.00
C204204 C     0.84514   1.23951   2.05303   0.00000  Uiso   1.00
C205205 C     0.86070   1.19967   1.88620   0.00000  Uiso   1.00
C206206 C     0.82586   0.88262   0.89843   0.00000  Uiso   1.00
C207207 C     0.80808   0.85755   0.87483   0.00000  Uiso   1.00
C208208 C     0.81426   0.81254   0.72450   0.00000  Uiso   1.00
C209209 C     0.83834   0.79278   0.59601   0.00000  Uiso   1.00
C210210 C     0.85628   0.81805   0.62220   0.00000  Uiso   1.00
C211211 C     1.13371   0.91024   1.40063   0.00000  Uiso   1.00
C212212 C     1.14954   0.89387   1.43768   0.00000  Uiso   1.00
C213213 C     1.17587   0.90726   1.50082   0.00000  Uiso   1.00
C214214 C     1.18620   0.93718   1.52641   0.00000  Uiso   1.00
C215215 C     1.17036   0.95391   1.49167   0.00000  Uiso   1.00
C216216 C     1.16844   1.09540   1.08325   0.00000  Uiso   1.00
C217217 C     1.18110   1.10447   0.99438   0.00000  Uiso   1.00
C218218 C     1.16841   1.13096   1.00560   0.00000  Uiso   1.00
C219219 C     1.14302   1.14868   1.10919   0.00000  Uiso   1.00
C220220 C     1.13016   1.13894   1.19413   0.00000  Uiso   1.00
C221221 C     0.81008   1.28983   2.15863   0.00000  Uiso   1.00
C222222 C     0.78070   1.28198   2.16916   0.00000  Uiso   1.00
C223223 C     0.77401   1.30373   2.39400   0.00000  Uiso   1.00
C224224 C     0.79630   0.78708   0.71659   0.00000  Uiso   1.00
C225225 C     0.76900   0.77736   0.61668   0.00000  Uiso   1.00
C226226 C     0.77113   0.74469   0.36447   0.00000  Uiso   1.00
C227227 C     1.18235   1.14185   0.91618   0.00000  Uiso   1.00
C228228 C     1.16803   1.12326   0.71229   0.00000  Uiso   1.00
C229229 C     1.16531   1.07335   0.51021   0.00000  Uiso   1.00
C230230 C     1.19263   0.89105   1.54953   0.00000  Uiso   1.00
C231231 C     1.19269   0.92671   1.81618   0.00000  Uiso   1.00
C232232 C     1.20770   0.96734   1.94429   0.00000  Uiso   1.00
N233233 N     0.76884   1.32090   2.57092   0.00000  Uiso   1.00
N234234 N     0.77283   0.71892   0.16624   0.00000  Uiso   1.00
N235235 N     1.21963   0.99891   2.04248   0.00000  Uiso   1.00
N236236 N     1.16301   1.03423   0.35265   0.00000  Uiso   1.00
H237237 H     1.21477   1.08847   0.45629   0.00000  Uiso   1.00
H238238 H     1.23948   1.11422   0.35915   0.00000  Uiso   1.00
H239239 H     1.18032   1.21921   0.73466   0.00000  Uiso   1.00
H240240 H     1.15514   1.19176   0.82112   0.00000  Uiso   1.00
H241241 H     1.11565   1.05892   1.64798   0.00000  Uiso   1.00
H242242 H     1.08583   1.18814   1.87234   0.00000  Uiso   1.00
H243243 H     1.06141   1.16617   1.99296   0.00000  Uiso   1.00
H244244 H     1.11339   1.16712   1.58273   0.00000  Uiso   1.00
H245245 H     1.14035   1.02810   0.94789   0.00000  Uiso   1.00
H246246 H     1.11490   1.00523   1.05465   0.00000  Uiso   1.00
H247247 H     1.02546   1.02328   1.55158   0.00000  Uiso   1.00
H248248 H     0.99705   1.05637   1.74024   0.00000  Uiso   1.00
H249249 H     1.02634   1.11566   1.99010   0.00000  Uiso   1.00
H250250 H     1.02272   1.11616   1.80863   0.00000  Uiso   1.00
H251251 H     1.17861   1.07514   1.07462   0.00000  Uiso   1.00
H252252 H     1.20088   1.09114   0.91851   0.00000  Uiso   1.00
H253253 H     1.13306   1.16967   1.12210   0.00000  Uiso   1.00
H254254 H     1.11016   1.15146   1.26502   0.00000  Uiso   1.00
H255255 H     1.18361   1.17953   1.06507   0.00000  Uiso   1.00
H256256 H     1.20302   1.12839   0.85924   0.00000  Uiso   1.00
H257257 H     1.14767   1.13779   0.77264   0.00000  Uiso   1.00
H258258 H     0.29078   1.86849   2.26742   0.00000  Uiso   1.00
H259259 H     0.26744   1.90313   2.21989   0.00000  Uiso   1.00
H260260 H     0.20839   1.79946   1.81979   0.00000  Uiso   1.00
H261261 H     0.23169   1.76478   1.86790   0.00000  Uiso   1.00
H262262 H     0.72358   1.41466   1.99313   0.00000  Uiso   1.00
H263263 H     0.74749   1.38928   2.08911   0.00000  Uiso   1.00
H264264 H     0.68051   1.31040   1.89402   0.00000  Uiso   1.00
H265265 H     0.65707   1.33414   1.78665   0.00000  Uiso   1.00
H266266 H     0.72165   1.66037   0.90957   0.00000  Uiso   1.00
H267267 H     0.74352   1.68449   0.79613   0.00000  Uiso   1.00
H268268 H     0.67112   1.74961   0.94222   0.00000  Uiso   1.00
H269269 H     0.65009   1.72903   1.07771   0.00000  Uiso   1.00
H270270 H     0.21936   1.22933   0.34799   0.00000  Uiso   1.00
H271271 H     0.19352   1.20240   0.43620   0.00000  Uiso   1.00
H272272 H     0.26556   1.17501   0.53544   0.00000  Uiso   1.00
H273273 H     0.29118   1.20122   0.44337   0.00000  Uiso   1.00
H274274 H     0.46070   1.44701   0.69332   0.00000  Uiso   1.00
H275275 H     0.45876   1.40527   0.65172   0.00000  Uiso   1.00
H276276 H     0.50322   1.40469   0.55825   0.00000  Uiso   1.00
H277277 H     0.50278   1.42825   0.82999   0.00000  Uiso   1.00
H278278 H     0.48820   1.48684   1.41574   0.00000  Uiso   1.00
H279279 H     0.48387   1.51007   1.34450   0.00000  Uiso   1.00
H280280 H     0.47960   1.58940   1.81703   0.00000  Uiso   1.00
H281281 H     0.46801   1.55349   1.80267   0.00000  Uiso   1.00
H282282 H     0.57083   1.41290   0.82721   0.00000  Uiso   1.00
H283283 H     0.59334   1.37687   0.87090   0.00000  Uiso   1.00
H284284 H     0.62098   1.38296   1.09693   0.00000  Uiso   1.00
H285285 H     0.65398   1.51230   1.74246   0.00000  Uiso   1.00
H286286 H     0.63158   1.54865   1.70575   0.00000  Uiso   1.00
H287287 H     0.59229   1.68885   2.03728   0.00000  Uiso   1.00
H288288 H     0.57242   1.65359   2.09721   0.00000  Uiso   1.00
H289289 H     0.61700   1.68176   1.78879   0.00000  Uiso   1.00
H290290 H     0.65016   1.55163   1.11988   0.00000  Uiso   1.00
H291291 H     0.62958   1.51555   1.16863   0.00000  Uiso   1.00
H292292 H     0.46718   1.52363   0.99916   0.00000  Uiso   1.00
H293293 H     0.43893   1.58669   1.18230   0.00000  Uiso   1.00
H294294 H     0.39963   1.63534   1.41576   0.00000  Uiso   1.00
H295295 H     0.34843   1.62002   1.70989   0.00000  Uiso   1.00
H296296 H     0.37674   1.55898   1.54038   0.00000  Uiso   1.00
H297297 H     0.40388   1.44549   1.43022   0.00000  Uiso   1.00
H298298 H     0.43543   1.50698   1.66136   0.00000  Uiso   1.00
H299299 H     0.36977   1.39832   1.13751   0.00000  Uiso   1.00
H300300 H     0.35153   1.40963   0.75448   0.00000  Uiso   1.00
H301301 H     0.38591   1.46537   0.95310   0.00000  Uiso   1.00
H302302 H     0.54060   1.50257   1.55018   0.00000  Uiso   1.00
H303303 H     0.51348   1.53357   1.76137   0.00000  Uiso   1.00
H304304 H     0.54390   1.58822   2.02433   0.00000  Uiso   1.00
H305305 H     0.53715   1.60343   1.91315   0.00000  Uiso   1.00
H306306 H     0.54587   1.49376   0.87479   0.00000  Uiso   1.00
H307307 H     0.54527   1.43871   0.72092   0.00000  Uiso   1.00
H308308 H     0.53488   1.47545   1.10707   0.00000  Uiso   1.00
H309309 H     0.53300   1.52967   1.25255   0.00000  Uiso   1.00
H310310 H     0.31951   1.62688   1.51298   0.00000  Uiso   1.00
H311311 H     0.29089   1.68470   1.64876   0.00000  Uiso   1.00
H312312 H     0.35644   1.77593   1.99630   0.00000  Uiso   1.00
H313313 H     0.38522   1.71759   1.85453   0.00000  Uiso   1.00
H314314 H     0.34283   1.33042   0.47403   0.00000  Uiso   1.00
H315315 H     0.30350   1.28298   0.30497   0.00000  Uiso   1.00
H316316 H     0.28355   1.35160   0.97505   0.00000  Uiso   1.00
H317317 H     0.32212   1.39992   1.14668   0.00000  Uiso   1.00
H318318 H     0.61853   1.38277   1.34609   0.00000  Uiso   1.00
H319319 H     0.63953   1.35073   1.41662   0.00000  Uiso   1.00
H320320 H     0.70880   1.42930   1.65497   0.00000  Uiso   1.00
H321321 H     0.68867   1.45940   1.57220   0.00000  Uiso   1.00
H322322 H     0.68485   1.60494   1.28549   0.00000  Uiso   1.00
H323323 H     0.70478   1.63715   1.20917   0.00000  Uiso   1.00
H324324 H     0.63383   1.71565   1.47076   0.00000  Uiso   1.00
H325325 H     0.61320   1.68182   1.53736   0.00000  Uiso   1.00
H326326 H     0.31714   1.79679   1.97653   0.00000  Uiso   1.00
H327327 H     0.29837   1.75003   1.72450   0.00000  Uiso   1.00
H328328 H     0.26907   1.75811   1.97865   0.00000  Uiso   1.00
H329329 H     0.25366   1.29997   0.67149   0.00000  Uiso   1.00
H330330 H     0.25435   1.29020   0.45026   0.00000  Uiso   1.00
H331331 H     0.29440   1.23063   0.34288   0.00000  Uiso   1.00
H332332 H     0.68031   1.73531   1.43895   0.00000  Uiso   1.00
H333333 H     0.70459   1.69089   1.25177   0.00000  Uiso   1.00
H334334 H     0.64920   1.68689   1.10855   0.00000  Uiso   1.00
H335335 H     0.68681   1.33251   1.44267   0.00000  Uiso   1.00
H336336 H     0.70931   1.37831   1.62986   0.00000  Uiso   1.00
H337337 H     0.65349   1.37853   1.77020   0.00000  Uiso   1.00
H338338 H     0.77452   1.36991   2.44484   0.00000  Uiso   1.00
H339339 H     0.74730   1.39775   2.37290   0.00000  Uiso   1.00
H340340 H     0.71848   1.26184   1.74494   0.00000  Uiso   1.00
H341341 H     0.74574   1.23412   1.81688   0.00000  Uiso   1.00
H342342 H     0.97550   1.09630   1.71234   0.00000  Uiso   1.00
H343343 H     0.96231   1.04077   1.51718   0.00000  Uiso   1.00
H344344 H     0.98147   1.07810   1.39221   0.00000  Uiso   1.00
H345345 H     0.94783   1.07108   1.41660   0.00000  Uiso   1.00
H346346 H     0.88271   1.12518   1.25237   0.00000  Uiso   1.00
H347347 H     0.86988   1.11275   1.63994   0.00000  Uiso   1.00
H348348 H     0.89665   1.04329   1.35087   0.00000  Uiso   1.00
H349349 H     0.83590   1.14761   1.38682   0.00000  Uiso   1.00
H350350 H     0.80868   1.21787   1.68115   0.00000  Uiso   1.00
H351351 H     0.84779   1.26500   2.23866   0.00000  Uiso   1.00
H352352 H     0.87533   1.19527   1.94603   0.00000  Uiso   1.00
H353353 H     0.81889   1.31614   2.33530   0.00000  Uiso   1.00
H354354 H     0.81192   1.30369   2.10978   0.00000  Uiso   1.00
H355355 H     0.77730   1.24494   2.02968   0.00000  Uiso   1.00
H356356 H     1.24430   0.90337   1.76767   0.00000  Uiso   1.00
H357357 H     1.26265   0.87295   1.85321   0.00000  Uiso   1.00
H358358 H     1.18455   0.86881   2.02289   0.00000  Uiso   1.00
H359359 H     1.16625   0.90186   1.95060   0.00000  Uiso   1.00
H360360 H     1.05341   0.91377   0.78078   0.00000  Uiso   1.00
H361361 H     1.07705   0.88419   0.85549   0.00000  Uiso   1.00
H362362 H     1.10858   0.89507   1.08369   0.00000  Uiso   1.00
H363363 H     1.14215   1.02694   1.69342   0.00000  Uiso   1.00
H364364 H     1.01958   0.96199   0.92802   0.00000  Uiso   1.00
H365365 H     1.01557   1.01434   1.05988   0.00000  Uiso   1.00
H366366 H     1.11330   0.90016   1.35641   0.00000  Uiso   1.00
H367367 H     1.14117   0.87129   1.42062   0.00000  Uiso   1.00
H368368 H     1.20656   0.94756   1.57350   0.00000  Uiso   1.00
H369369 H     1.17894   0.97647   1.50911   0.00000  Uiso   1.00
H370370 H     1.18477   0.85840   1.45411   0.00000  Uiso   1.00
H371371 H     1.21306   0.88322   1.47712   0.00000  Uiso   1.00
H372372 H     1.17207   0.93867   1.88898   0.00000  Uiso   1.00
H373373 H     0.72710   0.82109   0.92974   0.00000  Uiso   1.00
H374374 H     0.70244   0.79732   1.03780   0.00000  Uiso   1.00
H375375 H     0.74558   0.66909   0.49650   0.00000  Uiso   1.00
H376376 H     0.77098   0.69392   0.39682   0.00000  Uiso   1.00
H377377 H     0.96179   0.94019   0.36731   0.00000  Uiso   1.00
H378378 H     0.97314   0.89838   0.30878   0.00000  Uiso   1.00
H379379 H     0.98408   0.99393   0.79829   0.00000  Uiso   1.00
H380380 H     1.00066   0.97489   0.56023   0.00000  Uiso   1.00
H381381 H     0.93448   0.99690   0.58488   0.00000  Uiso   1.00
H382382 H     0.90901   1.06785   0.88657   0.00000  Uiso   1.00
H383383 H     0.94525   0.90546   1.00156   0.00000  Uiso   1.00
H384384 H     0.97752   0.95704   1.10604   0.00000  Uiso   1.00
H385385 H     0.90095   0.87523   0.89138   0.00000  Uiso   1.00
H386386 H     0.84354   0.91367   0.75377   0.00000  Uiso   1.00
H387387 H     0.87572   0.96160   0.83438   0.00000  Uiso   1.00
H388388 H     1.03772   0.98559   0.72714   0.00000  Uiso   1.00
H389389 H     1.04854   0.93582   0.60623   0.00000  Uiso   1.00
H390390 H     0.82103   0.91767   1.01955   0.00000  Uiso   1.00
H391391 H     0.78980   0.87362   0.97848   0.00000  Uiso   1.00
H392392 H     0.84349   0.75812   0.47935   0.00000  Uiso   1.00
H393393 H     0.87496   0.80250   0.52454   0.00000  Uiso   1.00
H394394 H     0.80585   0.75446   0.61201   0.00000  Uiso   1.00
H395395 H     0.79372   0.80798   0.89956   0.00000  Uiso   1.00
H396396 H     0.76043   0.80943   0.70921   0.00000  Uiso   1.00
loop_
_geom_bond_atom_site_label_1
_geom_bond_atom_site_label_2
_geom_bond_distance
_geom_bond_site_symmetry_2
_ccdc_geom_bond_type
C11    C44     1.404   .     D
C11    C88     1.405   .     S
C11    C104104  1.514   .     S
C22    C2020   1.403   .     D
C22    C2424   1.403   .     S
C22    C107107  1.513   .     S
C33    C99     1.405   .     D
C33    C1313   1.403   .     S
C33    C113113  1.514   .     S
C44    C55     1.394   .     S
C44    H258258  1.083   .     S
C55    C66     1.404   .     D
C55    H259259  1.082   .     S
C66    C77     1.403   .     S
C66    C129129  1.481   1_465 S
C77    C88     1.399   .     D
C77    H260260  1.083   .     S
C88    H261261  1.082   .     S
C99    C1010   1.396   .     S
C99    H262262  1.082   .     S
C1010  C1111   1.403   .     D
C1010  H263263  1.082   .     S
C1111  C1212   1.405   .     S
C1111  C124124  1.485   .     S
C1212  C1313   1.400   .     D
C1212  H264264  1.082   .     S
C1313  H265265  1.081   .     S
C1414  C1515   1.404   .     D
C1414  C1919   1.403   .     S
C1414  C110110  1.513   .     S
C1515  C1616   1.395   .     S
C1515  H266266  1.082   .     S
C1616  C1717   1.406   .     D
C1616  H267267  1.082   .     S
C1717  C1818   1.407   .     S
C1717  C140140  1.490   1_565 S
C1818  C1919   1.400   .     D
C1818  H268268  1.082   .     S
C1919  H269269  1.081   .     S
C2020  C2121   1.397   .     S
C2020  H270270  1.083   .     S
C2121  C2222   1.406   .     D
C2121  H271271  1.081   .     S
C2222  C2323   1.406   .     S
C2222  C135135  1.487   1_455 S
C2323  C2424   1.398   .     D
C2323  H272272  1.084   .     S
C2424  H273273  1.082   .     S
C2525  C2626   1.524   .     S
C2525  O6969   1.440   .     S
C2525  H274274  1.113   .     S
C2525  H275275  1.109   .     S
C2626  O7575   1.415   .     S
C2626  H276276  1.115   .     S
C2626  H277277  1.114   .     S
C2727  C2828   1.535   .     S
C2727  O7070   1.418   .     S
C2727  H278278  1.113   .     S
C2727  H279279  1.117   .     S
C2828  O7474   1.433   .     S
C2828  H280280  1.111   .     S
C2828  H281281  1.111   .     S
C2929  C3030   1.416   .     D
C2929  C3434   1.403   .     S
C2929  C3535   1.403   .     S
C3030  C3131   1.415   .     S
C3030  C3838   1.409   .     S
C3131  C3232   1.407   .     D
C3131  C3939   1.481   .     S
C3232  C3333   1.399   .     S
C3232  O7878   1.405   .     S
C3333  C3434   1.395   .     D
C3333  H282282  1.082   .     S
C3434  H283283  1.083   .     S
C3535  C3636   1.406   .     D
C3535  H284284  1.082   .     S
C3636  C3737   1.402   .     S
C3636  C7979   1.484   .     S
C3737  C3838   1.392   .     D
C3737  H285285  1.082   .     S
C3838  H286286  1.082   .     S
C3939  C4040   1.415   .     S
C3939  C4444   1.408   .     D
C4040  C4141   1.415   .     D
C4040  C4848   1.410   .     S
C4141  C4242   1.403   .     S
C4141  C4545   1.402   .     S
C4242  C4343   1.396   .     D
C4242  H287287  1.083   .     S
C4343  C4444   1.402   .     S
C4343  H288288  1.083   .     S
C4444  O7373   1.407   .     S
C4545  C4646   1.406   .     D
C4545  H289289  1.081   .     S
C4646  C4747   1.401   .     S
C4646  C8080   1.482   .     S
C4747  C4848   1.393   .     D
C4747  H290290  1.082   .     S
C4848  H291291  1.082   .     S
C4949  C5050   1.417   .     D
C4949  C5454   1.402   .     S
C4949  C5555   1.402   .     S
C5050  C5151   1.415   .     S
C5050  C5858   1.411   .     S
C5151  C5252   1.407   .     D
C5151  C5959   1.482   .     S
C5252  C5353   1.404   .     S
C5252  O6969   1.408   .     S
C5353  C5454   1.396   .     D
C5353  H292292  1.082   .     S
C5454  H293293  1.084   .     S
C5555  C5656   1.404   .     D
C5555  H294294  1.084   .     S
C5656  C5757   1.400   .     S
C5656  C8181   1.476   .     S
C5757  C5858   1.395   .     D
C5757  H295295  1.084   .     S
C5858  H296296  1.083   .     S
C5959  C6060   1.414   .     S
C5959  C6464   1.408   .     D
C6060  C6161   1.416   .     D
C6060  C6868   1.411   .     S
C6161  C6262   1.404   .     S
C6161  C6565   1.403   .     S
C6262  C6363   1.396   .     D
C6262  H297297  1.084   .     S
C6363  C6464   1.405   .     S
C6363  H298298  1.080   .     S
C6464  O7474   1.409   .     S
C6565  C6666   1.408   .     D
C6565  H299299  1.084   .     S
C6666  C6767   1.403   .     S
C6666  C8282   1.484   .     S
C6767  C6868   1.394   .     D
C6767  H300300  1.084   .     S
C6868  H301301  1.083   .     S
O7070  C7171   1.423   .     S
C7171  C7272   1.532   .     S
C7171  H302302  1.113   .     S
C7171  H303303  1.116   .     S
C7272  O7373   1.435   .     S
C7272  H304304  1.113   .     S
C7272  H305305  1.112   .     S
O7575  C7676   1.417   .     S
C7676  C7777   1.527   .     S
C7676  H306306  1.112   .     S
C7676  H307307  1.115   .     S
C7777  O7878   1.434   .     S
C7777  H308308  1.112   .     S
C7777  H309309  1.113   .     S
C7979  C9393   1.405   .     D
C7979  C9797   1.405   .     S
C8080  C9898   1.405   .     D
C8080  C102102  1.405   .     S
C8181  C8383   1.403   .     D
C8181  C8787   1.401   .     S
C8282  C8888   1.409   .     D
C8282  C9292   1.407   .     S
C8383  C8484   1.397   .     S
C8383  H310310  1.082   .     S
C8484  C8585   1.401   .     D
C8484  H311311  1.082   .     S
C8585  C8686   1.403   .     S
C8585  C103103  1.506   .     S
C8686  C8787   1.396   .     D
C8686  H312312  1.081   .     S
C8787  H313313  1.083   .     S
C8888  C8989   1.399   .     S
C8888  H314314  1.084   .     S
C8989  C9090   1.403   .     D
C8989  H315315  1.085   .     S
C9090  C9191   1.404   .     S
C9090  C106106  1.505   .     S
C9191  C9292   1.395   .     D
C9191  H316316  1.084   .     S
C9292  H317317  1.085   .     S
C9393  C9494   1.399   .     S
C9393  H318318  1.082   .     S
C9494  C9595   1.401   .     D
C9494  H319319  1.081   .     S
C9595  C9696   1.400   .     S
C9595  C112112  1.508   .     S
C9696  C9797   1.396   .     D
C9696  H320320  1.081   .     S
C9797  H321321  1.082   .     S
C9898  C9999   1.396   .     S
C9898  H322322  1.082   .     S
C9999  C100100  1.400   .     D
C9999  H323323  1.082   .     S
C100100 C101101  1.401   .     S
C100100 C109109  1.508   .     S
C101101 C102102  1.399   .     D
C101101 H324324  1.082   .     S
C102102 H325325  1.082   .     S
C103103 C104104  1.549   .     S
C103103 H326326  1.111   .     S
C103103 H327327  1.115   .     S
C104104 C105105  1.476   .     S
C104104 H328328  1.109   .     S
C105105 N115115  1.159   .     T
C106106 C107107  1.553   .     S
C106106 H329329  1.115   .     S
C106106 H330330  1.114   .     S
C107107 C108108  1.477   .     S
C107107 H331331  1.112   .     S
C108108 N116116  1.160   .     T
C109109 C110110  1.552   .     S
C109109 H332332  1.111   .     S
C109109 H333333  1.112   .     S
C110110 C111111  1.474   .     S
C110110 H334334  1.111   .     S
C111111 N118118  1.155   .     T
C112112 C113113  1.552   .     S
C112112 H335335  1.111   .     S
C112112 H336336  1.112   .     S
C113113 C114114  1.473   .     S
C113113 H337337  1.111   .     S
C114114 N117117  1.156   .     T
C119119 C122122  1.403   .     D
C119119 C126126  1.405   .     S
C119119 C222222  1.514   .     S
C120120 C138138  1.405   .     D
C120120 C142142  1.403   .     S
C120120 C225225  1.513   .     S
C121121 C127127  1.404   .     D
C121121 C131131  1.406   .     S
C121121 C231231  1.512   .     S
C122122 C123123  1.397   .     S
C122122 H338338  1.084   .     S
C123123 C124124  1.407   .     D
C123123 H339339  1.082   .     S
C124124 C125125  1.404   .     S
C125125 C126126  1.398   .     D
C125125 H340340  1.083   .     S
C126126 H341341  1.082   .     S
C127127 C128128  1.395   .     S
C127127 H356356  1.084   .     S
C128128 C129129  1.405   .     D
C128128 H357357  1.083   .     S
C129129 C130130  1.402   .     S
C129129 C66     1.481   1_645 S
C130130 C131131  1.399   .     D
C130130 H358358  1.083   .     S
C131131 H359359  1.083   .     S
C132132 C133133  1.404   .     D
C132132 C137137  1.401   .     S
C132132 C228228  1.512   .     S
C133133 C134134  1.396   .     S
C133133 H237237  1.081   .     S
C134134 C135135  1.405   .     D
C134134 H238238  1.082   .     S
C135135 C136136  1.406   .     S
C135135 C2222   1.487   1_655 S
C136136 C137137  1.398   .     D
C136136 H239239  1.081   .     S
C137137 H240240  1.082   .     S
C138138 C139139  1.399   .     S
C138138 H373373  1.081   .     S
C139139 C140140  1.405   .     D
C139139 H374374  1.082   .     S
C140140 C141141  1.408   .     S
C140140 C1717   1.490   1_545 S
C141141 C142142  1.396   .     D
C141141 H375375  1.081   .     S
C142142 H376376  1.084   .     S
C143143 C144144  1.535   .     S
C143143 O187187  1.438   .     S
C143143 H377377  1.109   .     S
C143143 H378378  1.111   .     S
C144144 O193193  1.417   .     S
C144144 H379379  1.113   .     S
C144144 H380380  1.114   .     S
C145145 C146146  1.535   .     S
C145145 O188188  1.415   .     S
C145145 H342342  1.115   .     S
C145145 H343343  1.112   .     S
C146146 O192192  1.437   .     S
C146146 H344344  1.110   .     S
C146146 H345345  1.110   .     S
C147147 C148148  1.415   .     D
C147147 C152152  1.402   .     S
C147147 C153153  1.405   .     S
C148148 C149149  1.413   .     S
C148148 C156156  1.407   .     S
C149149 C150150  1.408   .     D
C149149 C157157  1.480   .     S
C150150 C151151  1.404   .     S
C150150 O196196  1.408   .     S
C151151 C152152  1.397   .     D
C151151 H360360  1.082   .     S
C152152 H361361  1.083   .     S
C153153 C154154  1.406   .     D
C153153 H362362  1.082   .     S
C154154 C155155  1.398   .     S
C154154 C197197  1.482   .     S
C155155 C156156  1.389   .     D
C155155 H363363  1.076   .     S
C156156 H241241  1.082   .     S
C157157 C158158  1.414   .     S
C157157 C162162  1.407   .     D
C158158 C159159  1.415   .     D
C158158 C166166  1.410   .     S
C159159 C160160  1.403   .     S
C159159 C163163  1.402   .     S
C160160 C161161  1.396   .     D
C160160 H242242  1.083   .     S
C161161 C162162  1.400   .     S
C161161 H243243  1.083   .     S
C162162 O191191  1.404   .     S
C163163 C164164  1.405   .     D
C163163 H244244  1.082   .     S
C164164 C165165  1.400   .     S
C164164 C198198  1.479   .     S
C165165 C166166  1.392   .     D
C165165 H245245  1.082   .     S
C166166 H246246  1.082   .     S
C167167 C168168  1.416   .     D
C167167 C172172  1.403   .     S
C167167 C173173  1.403   .     S
C168168 C169169  1.417   .     S
C168168 C176176  1.413   .     S
C169169 C170170  1.412   .     D
C169169 C177177  1.483   .     S
C170170 C171171  1.407   .     S
C170170 O187187  1.411   .     S
C171171 C172172  1.395   .     D
C171171 H381381  1.080   .     S
C172172 H382382  1.084   .     S
C173173 C174174  1.407   .     D
C173173 H346346  1.083   .     S
C174174 C175175  1.402   .     S
C174174 C199199  1.484   .     S
C175175 C176176  1.395   .     D
C175175 H347347  1.085   .     S
C176176 H348348  1.082   .     S
C177177 C178178  1.417   .     S
C177177 C182182  1.408   .     D
C178178 C179179  1.418   .     D
C178178 C186186  1.410   .     S
C179179 C180180  1.401   .     S
C179179 C183183  1.400   .     S
C180180 C181181  1.393   .     D
C180180 H383383  1.083   .     S
C181181 C182182  1.395   .     S
C181181 H384384  1.082   .     S
C182182 O192192  1.401   .     S
C183183 C184184  1.402   .     D
C183183 H385385  1.084   .     S
C184184 C185185  1.401   .     S
C184184 C200200  1.477   .     S
C185185 C186186  1.396   .     D
C185185 H386386  1.083   .     S
C186186 H387387  1.083   .     S
O188188 C189189  1.422   .     S
C189189 C190190  1.533   .     S
C189189 H247247  1.111   .     S
C189189 H248248  1.117   .     S
C190190 O191191  1.434   .     S
C190190 H249249  1.113   .     S
C190190 H250250  1.114   .     S
O193193 C194194  1.417   .     S
C194194 C195195  1.528   .     S
C194194 H388388  1.115   .     S
C194194 H389389  1.111   .     S
C195195 O196196  1.435   .     S
C195195 H364364  1.112   .     S
C195195 H365365  1.107   .     S
C197197 C211211  1.403   .     D
C197197 C215215  1.406   .     S
C198198 C216216  1.404   .     D
C198198 C220220  1.403   .     S
C199199 C201201  1.405   .     D
C199199 C205205  1.409   .     S
C200200 C206206  1.403   .     D
C200200 C210210  1.402   .     S
C201201 C202202  1.398   .     S
C201201 H349349  1.085   .     S
C202202 C203203  1.404   .     D
C202202 H350350  1.083   .     S
C203203 C204204  1.402   .     S
C203203 C221221  1.505   .     S
C204204 C205205  1.398   .     D
C204204 H351351  1.085   .     S
C205205 H352352  1.083   .     S
C206206 C207207  1.397   .     S
C206206 H390390  1.082   .     S
C207207 C208208  1.402   .     D
C207207 H391391  1.083   .     S
C208208 C209209  1.403   .     S
C208208 C224224  1.506   .     S
C209209 C210210  1.396   .     D
C209209 H392392  1.082   .     S
C210210 H393393  1.083   .     S
C211211 C212212  1.398   .     S
C211211 H366366  1.082   .     S
C212212 C213213  1.402   .     D
C212212 H367367  1.082   .     S
C213213 C214214  1.399   .     S
C213213 C230230  1.505   .     S
C214214 C215215  1.396   .     D
C214214 H368368  1.083   .     S
C215215 H369369  1.082   .     S
C216216 C217217  1.398   .     S
C216216 H251251  1.083   .     S
C217217 C218218  1.402   .     D
C217217 H252252  1.082   .     S
C218218 C219219  1.402   .     S
C218218 C227227  1.505   .     S
C219219 C220220  1.397   .     D
C219219 H253253  1.082   .     S
C220220 H254254  1.083   .     S
C221221 C222222  1.557   .     S
C221221 H353353  1.115   .     S
C221221 H354354  1.114   .     S
C222222 C223223  1.476   .     S
C222222 H355355  1.112   .     S
C223223 N233233  1.159   .     T
C224224 C225225  1.546   .     S
C224224 H394394  1.112   .     S
C224224 H395395  1.116   .     S
C225225 C226226  1.476   .     S
C225225 H396396  1.109   .     S
C226226 N234234  1.159   .     T
C227227 C228228  1.546   .     S
C227227 H255255  1.111   .     S
C227227 H256256  1.113   .     S
C228228 C229229  1.473   .     S
C228228 H257257  1.110   .     S
C229229 N236236  1.156   .     T
C230230 C231231  1.549   .     S
C230230 H370370  1.112   .     S
C230230 H371371  1.115   .     S
C231231 C232232  1.474   .     S
C231231 H372372  1.113   .     S
C232232 N235235  1.156   .     T
