data_925
_audit_creation_date              2023-09-08
_audit_creation_method            'Materials Studio'
_symmetry_space_group_name_H-M    'P1'
_symmetry_Int_Tables_number       1
_symmetry_cell_setting            triclinic
loop_
_symmetry_equiv_pos_as_xyz
  x,y,z
_cell_length_a                    51.8172
_cell_length_b                    51.8172
_cell_length_c                    8.1195
_cell_angle_alpha                 90.0000
_cell_angle_beta                  90.0000
_cell_angle_gamma                 120.0000
loop_
_atom_site_label
_atom_site_type_symbol
_atom_site_fract_x
_atom_site_fract_y
_atom_site_fract_z
_atom_site_U_iso_or_equiv
_atom_site_adp_type
_atom_site_occupancy
C1     C     0.69139   0.60992   0.78316   0.00000  Uiso   1.00
C2     C     0.69195   0.58336   0.78638   0.00000  Uiso   1.00
C3     C     0.66572   0.55581   0.75748   0.00000  Uiso   1.00
C4     C     0.63907   0.55595   0.72038   0.00000  Uiso   1.00
C5     C     0.63875   0.58269   0.71715   0.00000  Uiso   1.00
C6     C     0.66479   0.61017   0.74883   0.00000  Uiso   1.00
C7     C     0.64684   0.50355   0.79449   0.00000  Uiso   1.00
N8     N     0.66819   0.52989   0.75481   0.00000  Uiso   1.00
C9     C     0.67853   0.48009   0.74528   0.00000  Uiso   1.00
C10    C     0.68123   0.45563   0.69959   0.00000  Uiso   1.00
C11    C     0.65572   0.42742   0.67556   0.00000  Uiso   1.00
C12    C     0.62769   0.42381   0.71668   0.00000  Uiso   1.00
C13    C     0.62503   0.44821   0.76575   0.00000  Uiso   1.00
C14    C     0.65023   0.47708   0.77221   0.00000  Uiso   1.00
C15    C     0.66342   0.35892   0.58677   0.00000  Uiso   1.00
C16    C     0.65827   0.40299   0.58766   0.00000  Uiso   1.00
C17    C     0.10003   0.97304   0.80091   0.00000  Uiso   1.00
C18    C     0.12641   0.97303   0.76527   0.00000  Uiso   1.00
C19    C     0.22673   0.97285   0.78562   0.00000  Uiso   1.00
C20    C     0.25357   0.97301   0.76875   0.00000  Uiso   1.00
C21    C     0.27999   0.61922   0.67399   0.00000  Uiso   1.00
C22    C     0.63871   0.66451   0.74684   0.00000  Uiso   1.00
N23    N     0.66451   0.69108   0.75260   0.00000  Uiso   1.00
H24    H     0.71177   0.63089   0.80756   0.00000  Uiso   1.00
H25    H     0.71262   0.58358   0.81459   0.00000  Uiso   1.00
H26    H     0.61874   0.53525   0.69039   0.00000  Uiso   1.00
H27    H     0.61807   0.58239   0.68787   0.00000  Uiso   1.00
H28    H     0.62480   0.49936   0.84143   0.00000  Uiso   1.00
H29    H     0.69842   0.50199   0.75533   0.00000  Uiso   1.00
H30    H     0.70323   0.45868   0.67357   0.00000  Uiso   1.00
H31    H     0.60771   0.40204   0.70321   0.00000  Uiso   1.00
H32    H     0.60295   0.44505   0.79111   0.00000  Uiso   1.00
H33    H     0.07941   0.95189   0.81698   0.00000  Uiso   1.00
H34    H     0.12601   0.95190   0.75199   0.00000  Uiso   1.00
H35    H     0.20578   0.95183   0.79339   0.00000  Uiso   1.00
H36    H     0.25337   0.95190   0.76287   0.00000  Uiso   1.00
H37    H     0.27999   0.61921   0.80834   0.00000  Uiso   1.00
C38    C     0.39008   0.08147   0.78316   0.00000  Uiso   1.00
C39    C     0.41664   0.10859   0.78638   0.00000  Uiso   1.00
C40    C     0.44419   0.10991   0.75748   0.00000  Uiso   1.00
C41    C     0.44405   0.08312   0.72038   0.00000  Uiso   1.00
C42    C     0.41731   0.05606   0.71715   0.00000  Uiso   1.00
C43    C     0.38983   0.05462   0.74883   0.00000  Uiso   1.00
C44    C     0.49645   0.14329   0.79449   0.00000  Uiso   1.00
N45    N     0.47011   0.13830   0.75481   0.00000  Uiso   1.00
C46    C     0.51991   0.19844   0.74528   0.00000  Uiso   1.00
C47    C     0.54437   0.22560   0.69959   0.00000  Uiso   1.00
C48    C     0.57258   0.22830   0.67556   0.00000  Uiso   1.00
C49    C     0.57619   0.20388   0.71668   0.00000  Uiso   1.00
C50    C     0.55179   0.17682   0.76575   0.00000  Uiso   1.00
C51    C     0.52292   0.17315   0.77221   0.00000  Uiso   1.00
C52    C     0.64108   0.30450   0.58677   0.00000  Uiso   1.00
C53    C     0.59701   0.25528   0.58766   0.00000  Uiso   1.00
C54    C     0.02696   0.12699   0.80091   0.00000  Uiso   1.00
C55    C     0.02697   0.15338   0.76527   0.00000  Uiso   1.00
C56    C     0.02715   0.25388   0.78562   0.00000  Uiso   1.00
C57    C     0.02699   0.28056   0.76875   0.00000  Uiso   1.00
C58    C     0.38078   0.66077   0.67399   0.00000  Uiso   1.00
C59    C     0.33549   0.97420   0.74684   0.00000  Uiso   1.00
N60    N     0.30892   0.97343   0.75260   0.00000  Uiso   1.00
H61    H     0.36911   0.08088   0.80756   0.00000  Uiso   1.00
H62    H     0.41642   0.12904   0.81459   0.00000  Uiso   1.00
H63    H     0.46475   0.08349   0.69039   0.00000  Uiso   1.00
H64    H     0.41761   0.03568   0.68787   0.00000  Uiso   1.00
H65    H     0.50064   0.12544   0.84143   0.00000  Uiso   1.00
H66    H     0.49801   0.19643   0.75533   0.00000  Uiso   1.00
H67    H     0.54132   0.24455   0.67357   0.00000  Uiso   1.00
H68    H     0.59796   0.20567   0.70321   0.00000  Uiso   1.00
H69    H     0.55495   0.15790   0.79111   0.00000  Uiso   1.00
H70    H     0.04811   0.12752   0.81698   0.00000  Uiso   1.00
H71    H     0.04810   0.17411   0.75199   0.00000  Uiso   1.00
H72    H     0.04817   0.25395   0.79339   0.00000  Uiso   1.00
H73    H     0.04810   0.30147   0.76287   0.00000  Uiso   1.00
H74    H     0.38079   0.66078   0.80834   0.00000  Uiso   1.00
C75    C     0.91853   0.30861   0.78316   0.00000  Uiso   1.00
C76    C     0.89141   0.30805   0.78638   0.00000  Uiso   1.00
C77    C     0.89009   0.33428   0.75748   0.00000  Uiso   1.00
C78    C     0.91688   0.36093   0.72038   0.00000  Uiso   1.00
C79    C     0.94394   0.36125   0.71715   0.00000  Uiso   1.00
C80    C     0.94538   0.33521   0.74883   0.00000  Uiso   1.00
C81    C     0.85671   0.35316   0.79449   0.00000  Uiso   1.00
N82    N     0.86170   0.33181   0.75481   0.00000  Uiso   1.00
C83    C     0.80156   0.32147   0.74528   0.00000  Uiso   1.00
C84    C     0.77440   0.31877   0.69959   0.00000  Uiso   1.00
C85    C     0.77170   0.34428   0.67556   0.00000  Uiso   1.00
C86    C     0.79612   0.37231   0.71668   0.00000  Uiso   1.00
C87    C     0.82318   0.37497   0.76575   0.00000  Uiso   1.00
C88    C     0.82685   0.34977   0.77221   0.00000  Uiso   1.00
C89    C     0.69550   0.33658   0.58677   0.00000  Uiso   1.00
C90    C     0.74472   0.34173   0.58766   0.00000  Uiso   1.00
C91    C     0.87301   0.89997   0.80091   0.00000  Uiso   1.00
C92    C     0.84662   0.87359   0.76527   0.00000  Uiso   1.00
C93    C     0.74612   0.77327   0.78562   0.00000  Uiso   1.00
C94    C     0.71944   0.74643   0.76875   0.00000  Uiso   1.00
C95    C     0.33923   0.72001   0.67399   0.00000  Uiso   1.00
C96    C     0.02580   0.36129   0.74684   0.00000  Uiso   1.00
N97    N     0.02657   0.33549   0.75260   0.00000  Uiso   1.00
H98    H     0.91912   0.28823   0.80756   0.00000  Uiso   1.00
H99    H     0.87096   0.28738   0.81459   0.00000  Uiso   1.00
H100   H     0.91651   0.38126   0.69039   0.00000  Uiso   1.00
H101   H     0.96432   0.38193   0.68787   0.00000  Uiso   1.00
H102   H     0.87456   0.37520   0.84143   0.00000  Uiso   1.00
H103   H     0.80357   0.30158   0.75533   0.00000  Uiso   1.00
H104   H     0.75545   0.29677   0.67357   0.00000  Uiso   1.00
H105   H     0.79433   0.39229   0.70321   0.00000  Uiso   1.00
H106   H     0.84210   0.39705   0.79111   0.00000  Uiso   1.00
H107   H     0.87248   0.92059   0.81698   0.00000  Uiso   1.00
H108   H     0.82589   0.87399   0.75199   0.00000  Uiso   1.00
H109   H     0.74605   0.79422   0.79339   0.00000  Uiso   1.00
H110   H     0.69853   0.74663   0.76287   0.00000  Uiso   1.00
H111   H     0.33922   0.72001   0.80834   0.00000  Uiso   1.00
C112   C     0.69139   0.60992   0.21684   0.00000  Uiso   1.00
C113   C     0.69195   0.58336   0.21362   0.00000  Uiso   1.00
C114   C     0.66572   0.55581   0.24252   0.00000  Uiso   1.00
C115   C     0.63907   0.55595   0.27962   0.00000  Uiso   1.00
C116   C     0.63875   0.58269   0.28285   0.00000  Uiso   1.00
C117   C     0.66479   0.61017   0.25117   0.00000  Uiso   1.00
C118   C     0.64684   0.50355   0.20551   0.00000  Uiso   1.00
N119   N     0.66819   0.52989   0.24519   0.00000  Uiso   1.00
C120   C     0.67853   0.48009   0.25472   0.00000  Uiso   1.00
C121   C     0.68123   0.45563   0.30041   0.00000  Uiso   1.00
C122   C     0.65572   0.42742   0.32444   0.00000  Uiso   1.00
C123   C     0.62769   0.42381   0.28332   0.00000  Uiso   1.00
C124   C     0.62503   0.44821   0.23425   0.00000  Uiso   1.00
C125   C     0.65023   0.47708   0.22779   0.00000  Uiso   1.00
C126   C     0.66342   0.35892   0.41323   0.00000  Uiso   1.00
C127   C     0.65827   0.40299   0.41234   0.00000  Uiso   1.00
C128   C     0.10003   0.97304   0.19909   0.00000  Uiso   1.00
C129   C     0.12641   0.97303   0.23473   0.00000  Uiso   1.00
C130   C     0.22673   0.97285   0.21438   0.00000  Uiso   1.00
C131   C     0.25357   0.97301   0.23125   0.00000  Uiso   1.00
C132   C     0.27999   0.61922   0.32601   0.00000  Uiso   1.00
C133   C     0.63871   0.66451   0.25316   0.00000  Uiso   1.00
N134   N     0.66451   0.69108   0.24740   0.00000  Uiso   1.00
H135   H     0.71177   0.63089   0.19244   0.00000  Uiso   1.00
H136   H     0.71262   0.58358   0.18541   0.00000  Uiso   1.00
H137   H     0.61874   0.53525   0.30961   0.00000  Uiso   1.00
H138   H     0.61807   0.58239   0.31213   0.00000  Uiso   1.00
H139   H     0.62480   0.49936   0.15857   0.00000  Uiso   1.00
H140   H     0.69842   0.50199   0.24467   0.00000  Uiso   1.00
H141   H     0.70323   0.45868   0.32643   0.00000  Uiso   1.00
H142   H     0.60771   0.40204   0.29679   0.00000  Uiso   1.00
H143   H     0.60295   0.44505   0.20889   0.00000  Uiso   1.00
H144   H     0.07941   0.95189   0.18302   0.00000  Uiso   1.00
H145   H     0.12601   0.95190   0.24801   0.00000  Uiso   1.00
H146   H     0.20578   0.95183   0.20661   0.00000  Uiso   1.00
H147   H     0.25337   0.95190   0.23713   0.00000  Uiso   1.00
H148   H     0.27999   0.61921   0.19166   0.00000  Uiso   1.00
C149   C     0.39008   0.08147   0.21684   0.00000  Uiso   1.00
C150   C     0.41664   0.10859   0.21362   0.00000  Uiso   1.00
C151   C     0.44419   0.10991   0.24252   0.00000  Uiso   1.00
C152   C     0.44405   0.08312   0.27962   0.00000  Uiso   1.00
C153   C     0.41731   0.05606   0.28285   0.00000  Uiso   1.00
C154   C     0.38983   0.05462   0.25117   0.00000  Uiso   1.00
C155   C     0.49645   0.14329   0.20551   0.00000  Uiso   1.00
N156   N     0.47011   0.13830   0.24519   0.00000  Uiso   1.00
C157   C     0.51991   0.19844   0.25472   0.00000  Uiso   1.00
C158   C     0.54437   0.22560   0.30041   0.00000  Uiso   1.00
C159   C     0.57258   0.22830   0.32444   0.00000  Uiso   1.00
C160   C     0.57619   0.20388   0.28332   0.00000  Uiso   1.00
C161   C     0.55179   0.17682   0.23425   0.00000  Uiso   1.00
C162   C     0.52292   0.17315   0.22779   0.00000  Uiso   1.00
C163   C     0.64108   0.30450   0.41323   0.00000  Uiso   1.00
C164   C     0.59701   0.25528   0.41234   0.00000  Uiso   1.00
C165   C     0.02696   0.12699   0.19909   0.00000  Uiso   1.00
C166   C     0.02697   0.15338   0.23473   0.00000  Uiso   1.00
C167   C     0.02715   0.25388   0.21438   0.00000  Uiso   1.00
C168   C     0.02699   0.28056   0.23125   0.00000  Uiso   1.00
C169   C     0.38078   0.66077   0.32601   0.00000  Uiso   1.00
C170   C     0.33549   0.97420   0.25316   0.00000  Uiso   1.00
N171   N     0.30892   0.97343   0.24740   0.00000  Uiso   1.00
H172   H     0.36911   0.08088   0.19244   0.00000  Uiso   1.00
H173   H     0.41642   0.12904   0.18541   0.00000  Uiso   1.00
H174   H     0.46475   0.08349   0.30961   0.00000  Uiso   1.00
H175   H     0.41761   0.03568   0.31213   0.00000  Uiso   1.00
H176   H     0.50064   0.12544   0.15857   0.00000  Uiso   1.00
H177   H     0.49801   0.19643   0.24467   0.00000  Uiso   1.00
H178   H     0.54132   0.24455   0.32643   0.00000  Uiso   1.00
H179   H     0.59796   0.20567   0.29679   0.00000  Uiso   1.00
H180   H     0.55495   0.15790   0.20889   0.00000  Uiso   1.00
H181   H     0.04811   0.12752   0.18302   0.00000  Uiso   1.00
H182   H     0.04810   0.17411   0.24801   0.00000  Uiso   1.00
H183   H     0.04817   0.25395   0.20661   0.00000  Uiso   1.00
H184   H     0.04810   0.30147   0.23713   0.00000  Uiso   1.00
H185   H     0.38079   0.66078   0.19166   0.00000  Uiso   1.00
C186   C     0.91853   0.30861   0.21684   0.00000  Uiso   1.00
C187   C     0.89141   0.30805   0.21362   0.00000  Uiso   1.00
C188   C     0.89009   0.33428   0.24252   0.00000  Uiso   1.00
C189   C     0.91688   0.36093   0.27962   0.00000  Uiso   1.00
C190   C     0.94394   0.36125   0.28285   0.00000  Uiso   1.00
C191   C     0.94538   0.33521   0.25117   0.00000  Uiso   1.00
C192   C     0.85671   0.35316   0.20551   0.00000  Uiso   1.00
N193   N     0.86170   0.33181   0.24519   0.00000  Uiso   1.00
C194   C     0.80156   0.32147   0.25472   0.00000  Uiso   1.00
C195   C     0.77440   0.31877   0.30041   0.00000  Uiso   1.00
C196   C     0.77170   0.34428   0.32444   0.00000  Uiso   1.00
C197   C     0.79612   0.37231   0.28332   0.00000  Uiso   1.00
C198   C     0.82318   0.37497   0.23425   0.00000  Uiso   1.00
C199   C     0.82685   0.34977   0.22779   0.00000  Uiso   1.00
C200   C     0.69550   0.33658   0.41323   0.00000  Uiso   1.00
C201   C     0.74472   0.34173   0.41234   0.00000  Uiso   1.00
C202   C     0.87301   0.89997   0.19909   0.00000  Uiso   1.00
C203   C     0.84662   0.87359   0.23473   0.00000  Uiso   1.00
C204   C     0.74612   0.77327   0.21438   0.00000  Uiso   1.00
C205   C     0.71944   0.74643   0.23125   0.00000  Uiso   1.00
C206   C     0.33923   0.72001   0.32601   0.00000  Uiso   1.00
C207   C     0.02580   0.36129   0.25316   0.00000  Uiso   1.00
N208   N     0.02657   0.33549   0.24740   0.00000  Uiso   1.00
H209   H     0.91912   0.28823   0.19244   0.00000  Uiso   1.00
H210   H     0.87096   0.28738   0.18541   0.00000  Uiso   1.00
H211   H     0.91651   0.38126   0.30961   0.00000  Uiso   1.00
H212   H     0.96432   0.38193   0.31213   0.00000  Uiso   1.00
H213   H     0.87456   0.37520   0.15857   0.00000  Uiso   1.00
H214   H     0.80357   0.30158   0.24467   0.00000  Uiso   1.00
H215   H     0.75545   0.29677   0.32643   0.00000  Uiso   1.00
H216   H     0.79433   0.39229   0.29679   0.00000  Uiso   1.00
H217   H     0.84210   0.39705   0.20889   0.00000  Uiso   1.00
H218   H     0.87248   0.92059   0.18302   0.00000  Uiso   1.00
H219   H     0.82589   0.87399   0.24801   0.00000  Uiso   1.00
H220   H     0.74605   0.79422   0.20661   0.00000  Uiso   1.00
H221   H     0.69853   0.74663   0.23713   0.00000  Uiso   1.00
H222   H     0.33922   0.72001   0.19166   0.00000  Uiso   1.00
C223   C     0.60992   0.69139   0.21684   0.00000  Uiso   1.00
C224   C     0.58336   0.69195   0.21362   0.00000  Uiso   1.00
C225   C     0.55581   0.66572   0.24252   0.00000  Uiso   1.00
C226   C     0.55595   0.63907   0.27962   0.00000  Uiso   1.00
C227   C     0.58269   0.63875   0.28285   0.00000  Uiso   1.00
C228   C     0.61017   0.66479   0.25117   0.00000  Uiso   1.00
C229   C     0.50355   0.64684   0.20551   0.00000  Uiso   1.00
N230   N     0.52989   0.66819   0.24519   0.00000  Uiso   1.00
C231   C     0.48009   0.67853   0.25472   0.00000  Uiso   1.00
C232   C     0.45563   0.68123   0.30041   0.00000  Uiso   1.00
C233   C     0.42742   0.65572   0.32444   0.00000  Uiso   1.00
C234   C     0.42381   0.62769   0.28332   0.00000  Uiso   1.00
C235   C     0.44821   0.62503   0.23425   0.00000  Uiso   1.00
C236   C     0.47708   0.65023   0.22779   0.00000  Uiso   1.00
C237   C     0.35892   0.66342   0.41323   0.00000  Uiso   1.00
C238   C     0.40299   0.65827   0.41234   0.00000  Uiso   1.00
C239   C     0.97304   0.10003   0.19909   0.00000  Uiso   1.00
C240   C     0.97303   0.12641   0.23473   0.00000  Uiso   1.00
C241   C     0.97285   0.22673   0.21438   0.00000  Uiso   1.00
C242   C     0.97301   0.25357   0.23125   0.00000  Uiso   1.00
C243   C     0.61922   0.27999   0.32601   0.00000  Uiso   1.00
C244   C     0.66451   0.63871   0.25316   0.00000  Uiso   1.00
N245   N     0.69108   0.66451   0.24740   0.00000  Uiso   1.00
H246   H     0.63089   0.71177   0.19244   0.00000  Uiso   1.00
H247   H     0.58358   0.71262   0.18541   0.00000  Uiso   1.00
H248   H     0.53525   0.61874   0.30961   0.00000  Uiso   1.00
H249   H     0.58239   0.61807   0.31213   0.00000  Uiso   1.00
H250   H     0.49936   0.62480   0.15857   0.00000  Uiso   1.00
H251   H     0.50199   0.69842   0.24467   0.00000  Uiso   1.00
H252   H     0.45868   0.70323   0.32643   0.00000  Uiso   1.00
H253   H     0.40204   0.60771   0.29679   0.00000  Uiso   1.00
H254   H     0.44505   0.60295   0.20889   0.00000  Uiso   1.00
H255   H     0.95189   0.07941   0.18302   0.00000  Uiso   1.00
H256   H     0.95190   0.12601   0.24801   0.00000  Uiso   1.00
H257   H     0.95183   0.20578   0.20661   0.00000  Uiso   1.00
H258   H     0.95190   0.25337   0.23713   0.00000  Uiso   1.00
H259   H     0.61921   0.27999   0.19166   0.00000  Uiso   1.00
C260   C     0.08147   0.39008   0.21684   0.00000  Uiso   1.00
C261   C     0.10859   0.41664   0.21362   0.00000  Uiso   1.00
C262   C     0.10991   0.44419   0.24252   0.00000  Uiso   1.00
C263   C     0.08312   0.44405   0.27962   0.00000  Uiso   1.00
C264   C     0.05606   0.41731   0.28285   0.00000  Uiso   1.00
C265   C     0.05462   0.38983   0.25117   0.00000  Uiso   1.00
C266   C     0.14329   0.49645   0.20551   0.00000  Uiso   1.00
N267   N     0.13830   0.47011   0.24519   0.00000  Uiso   1.00
C268   C     0.19844   0.51991   0.25472   0.00000  Uiso   1.00
C269   C     0.22560   0.54437   0.30041   0.00000  Uiso   1.00
C270   C     0.22830   0.57258   0.32444   0.00000  Uiso   1.00
C271   C     0.20388   0.57619   0.28332   0.00000  Uiso   1.00
C272   C     0.17682   0.55179   0.23425   0.00000  Uiso   1.00
C273   C     0.17315   0.52292   0.22779   0.00000  Uiso   1.00
C274   C     0.30450   0.64108   0.41323   0.00000  Uiso   1.00
C275   C     0.25528   0.59701   0.41234   0.00000  Uiso   1.00
C276   C     0.12699   0.02696   0.19909   0.00000  Uiso   1.00
C277   C     0.15338   0.02697   0.23473   0.00000  Uiso   1.00
C278   C     0.25388   0.02715   0.21438   0.00000  Uiso   1.00
C279   C     0.28056   0.02699   0.23125   0.00000  Uiso   1.00
C280   C     0.66077   0.38078   0.32601   0.00000  Uiso   1.00
C281   C     0.97420   0.33549   0.25316   0.00000  Uiso   1.00
N282   N     0.97343   0.30892   0.24740   0.00000  Uiso   1.00
H283   H     0.08088   0.36911   0.19244   0.00000  Uiso   1.00
H284   H     0.12904   0.41642   0.18541   0.00000  Uiso   1.00
H285   H     0.08349   0.46475   0.30961   0.00000  Uiso   1.00
H286   H     0.03568   0.41761   0.31213   0.00000  Uiso   1.00
H287   H     0.12544   0.50064   0.15857   0.00000  Uiso   1.00
H288   H     0.19643   0.49801   0.24467   0.00000  Uiso   1.00
H289   H     0.24455   0.54132   0.32643   0.00000  Uiso   1.00
H290   H     0.20567   0.59796   0.29679   0.00000  Uiso   1.00
H291   H     0.15790   0.55495   0.20889   0.00000  Uiso   1.00
H292   H     0.12752   0.04811   0.18302   0.00000  Uiso   1.00
H293   H     0.17411   0.04810   0.24801   0.00000  Uiso   1.00
H294   H     0.25395   0.04817   0.20661   0.00000  Uiso   1.00
H295   H     0.30147   0.04810   0.23713   0.00000  Uiso   1.00
H296   H     0.66078   0.38079   0.19166   0.00000  Uiso   1.00
C297   C     0.30861   0.91853   0.21684   0.00000  Uiso   1.00
C298   C     0.30805   0.89141   0.21362   0.00000  Uiso   1.00
C299   C     0.33428   0.89009   0.24252   0.00000  Uiso   1.00
C300   C     0.36093   0.91688   0.27962   0.00000  Uiso   1.00
C301   C     0.36125   0.94394   0.28285   0.00000  Uiso   1.00
C302   C     0.33521   0.94538   0.25117   0.00000  Uiso   1.00
C303   C     0.35316   0.85671   0.20551   0.00000  Uiso   1.00
N304   N     0.33181   0.86170   0.24519   0.00000  Uiso   1.00
C305   C     0.32147   0.80156   0.25472   0.00000  Uiso   1.00
C306   C     0.31877   0.77440   0.30041   0.00000  Uiso   1.00
C307   C     0.34428   0.77170   0.32444   0.00000  Uiso   1.00
C308   C     0.37231   0.79612   0.28332   0.00000  Uiso   1.00
C309   C     0.37497   0.82318   0.23425   0.00000  Uiso   1.00
C310   C     0.34977   0.82685   0.22779   0.00000  Uiso   1.00
C311   C     0.33658   0.69550   0.41323   0.00000  Uiso   1.00
C312   C     0.34173   0.74472   0.41234   0.00000  Uiso   1.00
C313   C     0.89997   0.87301   0.19909   0.00000  Uiso   1.00
C314   C     0.87359   0.84662   0.23473   0.00000  Uiso   1.00
C315   C     0.77327   0.74612   0.21438   0.00000  Uiso   1.00
C316   C     0.74643   0.71944   0.23125   0.00000  Uiso   1.00
C317   C     0.72001   0.33923   0.32601   0.00000  Uiso   1.00
C318   C     0.36129   0.02580   0.25316   0.00000  Uiso   1.00
N319   N     0.33549   0.02657   0.24740   0.00000  Uiso   1.00
H320   H     0.28823   0.91912   0.19244   0.00000  Uiso   1.00
H321   H     0.28738   0.87096   0.18541   0.00000  Uiso   1.00
H322   H     0.38126   0.91651   0.30961   0.00000  Uiso   1.00
H323   H     0.38193   0.96432   0.31213   0.00000  Uiso   1.00
H324   H     0.37520   0.87456   0.15857   0.00000  Uiso   1.00
H325   H     0.30158   0.80357   0.24467   0.00000  Uiso   1.00
H326   H     0.29677   0.75545   0.32643   0.00000  Uiso   1.00
H327   H     0.39229   0.79433   0.29679   0.00000  Uiso   1.00
H328   H     0.39705   0.84210   0.20889   0.00000  Uiso   1.00
H329   H     0.92059   0.87248   0.18302   0.00000  Uiso   1.00
H330   H     0.87399   0.82589   0.24801   0.00000  Uiso   1.00
H331   H     0.79422   0.74605   0.20661   0.00000  Uiso   1.00
H332   H     0.74663   0.69853   0.23713   0.00000  Uiso   1.00
H333   H     0.72001   0.33922   0.19166   0.00000  Uiso   1.00
C334   C     0.60992   0.69139   0.78316   0.00000  Uiso   1.00
C335   C     0.58336   0.69195   0.78638   0.00000  Uiso   1.00
C336   C     0.55581   0.66572   0.75748   0.00000  Uiso   1.00
C337   C     0.55595   0.63907   0.72038   0.00000  Uiso   1.00
C338   C     0.58269   0.63875   0.71715   0.00000  Uiso   1.00
C339   C     0.61017   0.66479   0.74883   0.00000  Uiso   1.00
C340   C     0.50355   0.64684   0.79449   0.00000  Uiso   1.00
N341   N     0.52989   0.66819   0.75481   0.00000  Uiso   1.00
C342   C     0.48009   0.67853   0.74528   0.00000  Uiso   1.00
C343   C     0.45563   0.68123   0.69959   0.00000  Uiso   1.00
C344   C     0.42742   0.65572   0.67556   0.00000  Uiso   1.00
C345   C     0.42381   0.62769   0.71668   0.00000  Uiso   1.00
C346   C     0.44821   0.62503   0.76575   0.00000  Uiso   1.00
C347   C     0.47708   0.65023   0.77221   0.00000  Uiso   1.00
C348   C     0.35892   0.66342   0.58677   0.00000  Uiso   1.00
C349   C     0.40299   0.65827   0.58766   0.00000  Uiso   1.00
C350   C     0.97304   0.10003   0.80091   0.00000  Uiso   1.00
C351   C     0.97303   0.12641   0.76527   0.00000  Uiso   1.00
C352   C     0.97285   0.22673   0.78562   0.00000  Uiso   1.00
C353   C     0.97301   0.25357   0.76875   0.00000  Uiso   1.00
C354   C     0.61922   0.27999   0.67399   0.00000  Uiso   1.00
C355   C     0.66451   0.63871   0.74684   0.00000  Uiso   1.00
N356   N     0.69108   0.66451   0.75260   0.00000  Uiso   1.00
H357   H     0.63089   0.71177   0.80756   0.00000  Uiso   1.00
H358   H     0.58358   0.71262   0.81459   0.00000  Uiso   1.00
H359   H     0.53525   0.61874   0.69039   0.00000  Uiso   1.00
H360   H     0.58239   0.61807   0.68787   0.00000  Uiso   1.00
H361   H     0.49936   0.62480   0.84143   0.00000  Uiso   1.00
H362   H     0.50199   0.69842   0.75533   0.00000  Uiso   1.00
H363   H     0.45868   0.70323   0.67357   0.00000  Uiso   1.00
H364   H     0.40204   0.60771   0.70321   0.00000  Uiso   1.00
H365   H     0.44505   0.60295   0.79111   0.00000  Uiso   1.00
H366   H     0.95189   0.07941   0.81698   0.00000  Uiso   1.00
H367   H     0.95190   0.12601   0.75199   0.00000  Uiso   1.00
H368   H     0.95183   0.20578   0.79339   0.00000  Uiso   1.00
H369   H     0.95190   0.25337   0.76287   0.00000  Uiso   1.00
H370   H     0.61921   0.27999   0.80834   0.00000  Uiso   1.00
C371   C     0.08147   0.39008   0.78316   0.00000  Uiso   1.00
C372   C     0.10859   0.41664   0.78638   0.00000  Uiso   1.00
C373   C     0.10991   0.44419   0.75748   0.00000  Uiso   1.00
C374   C     0.08312   0.44405   0.72038   0.00000  Uiso   1.00
C375   C     0.05606   0.41731   0.71715   0.00000  Uiso   1.00
C376   C     0.05462   0.38983   0.74883   0.00000  Uiso   1.00
C377   C     0.14329   0.49645   0.79449   0.00000  Uiso   1.00
N378   N     0.13830   0.47011   0.75481   0.00000  Uiso   1.00
C379   C     0.19844   0.51991   0.74528   0.00000  Uiso   1.00
C380   C     0.22560   0.54437   0.69959   0.00000  Uiso   1.00
C381   C     0.22830   0.57258   0.67556   0.00000  Uiso   1.00
C382   C     0.20388   0.57619   0.71668   0.00000  Uiso   1.00
C383   C     0.17682   0.55179   0.76575   0.00000  Uiso   1.00
C384   C     0.17315   0.52292   0.77221   0.00000  Uiso   1.00
C385   C     0.30450   0.64108   0.58677   0.00000  Uiso   1.00
C386   C     0.25528   0.59701   0.58766   0.00000  Uiso   1.00
C387   C     0.12699   0.02696   0.80091   0.00000  Uiso   1.00
C388   C     0.15338   0.02697   0.76527   0.00000  Uiso   1.00
C389   C     0.25388   0.02715   0.78562   0.00000  Uiso   1.00
C390   C     0.28056   0.02699   0.76875   0.00000  Uiso   1.00
C391   C     0.66077   0.38078   0.67399   0.00000  Uiso   1.00
C392   C     0.97420   0.33549   0.74684   0.00000  Uiso   1.00
N393   N     0.97343   0.30892   0.75260   0.00000  Uiso   1.00
H394   H     0.08088   0.36911   0.80756   0.00000  Uiso   1.00
H395   H     0.12904   0.41642   0.81459   0.00000  Uiso   1.00
H396   H     0.08349   0.46475   0.69039   0.00000  Uiso   1.00
H397   H     0.03568   0.41761   0.68787   0.00000  Uiso   1.00
H398   H     0.12544   0.50064   0.84143   0.00000  Uiso   1.00
H399   H     0.19643   0.49801   0.75533   0.00000  Uiso   1.00
H400   H     0.24455   0.54132   0.67357   0.00000  Uiso   1.00
H401   H     0.20567   0.59796   0.70321   0.00000  Uiso   1.00
H402   H     0.15790   0.55495   0.79111   0.00000  Uiso   1.00
H403   H     0.12752   0.04811   0.81698   0.00000  Uiso   1.00
H404   H     0.17411   0.04810   0.75199   0.00000  Uiso   1.00
H405   H     0.25395   0.04817   0.79339   0.00000  Uiso   1.00
H406   H     0.30147   0.04810   0.76287   0.00000  Uiso   1.00
H407   H     0.66078   0.38079   0.80834   0.00000  Uiso   1.00
C408   C     0.30861   0.91853   0.78316   0.00000  Uiso   1.00
C409   C     0.30805   0.89141   0.78638   0.00000  Uiso   1.00
C410   C     0.33428   0.89009   0.75748   0.00000  Uiso   1.00
C411   C     0.36093   0.91688   0.72038   0.00000  Uiso   1.00
C412   C     0.36125   0.94394   0.71715   0.00000  Uiso   1.00
C413   C     0.33521   0.94538   0.74883   0.00000  Uiso   1.00
C414   C     0.35316   0.85671   0.79449   0.00000  Uiso   1.00
N415   N     0.33181   0.86170   0.75481   0.00000  Uiso   1.00
C416   C     0.32147   0.80156   0.74528   0.00000  Uiso   1.00
C417   C     0.31877   0.77440   0.69959   0.00000  Uiso   1.00
C418   C     0.34428   0.77170   0.67556   0.00000  Uiso   1.00
C419   C     0.37231   0.79612   0.71668   0.00000  Uiso   1.00
C420   C     0.37497   0.82318   0.76575   0.00000  Uiso   1.00
C421   C     0.34977   0.82685   0.77221   0.00000  Uiso   1.00
C422   C     0.33658   0.69550   0.58677   0.00000  Uiso   1.00
C423   C     0.34173   0.74472   0.58766   0.00000  Uiso   1.00
C424   C     0.89997   0.87301   0.80091   0.00000  Uiso   1.00
C425   C     0.87359   0.84662   0.76527   0.00000  Uiso   1.00
C426   C     0.77327   0.74612   0.78562   0.00000  Uiso   1.00
C427   C     0.74643   0.71944   0.76875   0.00000  Uiso   1.00
C428   C     0.72001   0.33923   0.67399   0.00000  Uiso   1.00
C429   C     0.36129   0.02580   0.74684   0.00000  Uiso   1.00
N430   N     0.33549   0.02657   0.75260   0.00000  Uiso   1.00
H431   H     0.28823   0.91912   0.80756   0.00000  Uiso   1.00
H432   H     0.28738   0.87096   0.81459   0.00000  Uiso   1.00
H433   H     0.38126   0.91651   0.69039   0.00000  Uiso   1.00
H434   H     0.38193   0.96432   0.68787   0.00000  Uiso   1.00
H435   H     0.37520   0.87456   0.84143   0.00000  Uiso   1.00
H436   H     0.30158   0.80357   0.75533   0.00000  Uiso   1.00
H437   H     0.29677   0.75545   0.67357   0.00000  Uiso   1.00
H438   H     0.39229   0.79433   0.70321   0.00000  Uiso   1.00
H439   H     0.39705   0.84210   0.79111   0.00000  Uiso   1.00
H440   H     0.92059   0.87248   0.81698   0.00000  Uiso   1.00
H441   H     0.87399   0.82589   0.75199   0.00000  Uiso   1.00
H442   H     0.79422   0.74605   0.79339   0.00000  Uiso   1.00
H443   H     0.74663   0.69853   0.76287   0.00000  Uiso   1.00
H444   H     0.72001   0.33922   0.80834   0.00000  Uiso   1.00
C445   C     0.07415  -0.00000   0.91225   0.00000  Uiso   1.00
C446   C     0.02735  -0.00000   0.91324   0.00000  Uiso   1.00
C447   C     0.15365  -0.00000   0.75578   0.00000  Uiso   1.00
C448   C     0.10023  -0.00000   0.82758   0.00000  Uiso   1.00
N449   N     0.19987  -0.00000   0.83266   0.00000  Uiso   1.00
C450   C     0.18216  -0.00000   0.72306   0.00000  Uiso   1.00
C451   C     0.28103  -0.00000   0.76212   0.00000  Uiso   1.00
C452   C     0.22662  -0.00000   0.79544   0.00000  Uiso   1.00
C453   C     0.05064  -0.00000   0.17424   0.00000  Uiso   1.00
C454   C     0.00000   0.07415   0.91225   0.00000  Uiso   1.00
C455   C     0.00000   0.02735   0.91324   0.00000  Uiso   1.00
C456   C     0.00000   0.15365   0.75578   0.00000  Uiso   1.00
C457   C     0.00000   0.10023   0.82758   0.00000  Uiso   1.00
N458   N     0.00000   0.19987   0.83266   0.00000  Uiso   1.00
C459   C     0.00000   0.18216   0.72306   0.00000  Uiso   1.00
C460   C     0.00000   0.28103   0.76212   0.00000  Uiso   1.00
C461   C     0.00000   0.22662   0.79544   0.00000  Uiso   1.00
C462   C     0.00000   0.05064   0.17424   0.00000  Uiso   1.00
C463   C     0.92585   0.92585   0.91225   0.00000  Uiso   1.00
C464   C     0.97265   0.97265   0.91324   0.00000  Uiso   1.00
C465   C     0.84635   0.84635   0.75578   0.00000  Uiso   1.00
C466   C     0.89977   0.89977   0.82758   0.00000  Uiso   1.00
N467   N     0.80013   0.80013   0.83266   0.00000  Uiso   1.00
C468   C     0.81784   0.81784   0.72306   0.00000  Uiso   1.00
C469   C     0.71897   0.71897   0.76212   0.00000  Uiso   1.00
C470   C     0.77338   0.77338   0.79544   0.00000  Uiso   1.00
C471   C     0.94936   0.94936   0.17424   0.00000  Uiso   1.00
C472   C     0.07415  -0.00000   0.08775   0.00000  Uiso   1.00
C473   C     0.02735  -0.00000   0.08676   0.00000  Uiso   1.00
C474   C     0.15365  -0.00000   0.24422   0.00000  Uiso   1.00
C475   C     0.10023  -0.00000   0.17242   0.00000  Uiso   1.00
N476   N     0.19987  -0.00000   0.16734   0.00000  Uiso   1.00
C477   C     0.18216  -0.00000   0.27694   0.00000  Uiso   1.00
C478   C     0.28103  -0.00000   0.23788   0.00000  Uiso   1.00
C479   C     0.22662  -0.00000   0.20456   0.00000  Uiso   1.00
C480   C     0.05064  -0.00000   0.82576   0.00000  Uiso   1.00
C481   C     0.00000   0.07415   0.08775   0.00000  Uiso   1.00
C482   C     0.00000   0.02735   0.08676   0.00000  Uiso   1.00
C483   C     0.00000   0.15365   0.24422   0.00000  Uiso   1.00
C484   C     0.00000   0.10023   0.17242   0.00000  Uiso   1.00
N485   N     0.00000   0.19987   0.16734   0.00000  Uiso   1.00
C486   C     0.00000   0.18216   0.27694   0.00000  Uiso   1.00
C487   C     0.00000   0.28103   0.23788   0.00000  Uiso   1.00
C488   C     0.00000   0.22662   0.20456   0.00000  Uiso   1.00
C489   C     0.00000   0.05064   0.82576   0.00000  Uiso   1.00
C490   C     0.92585   0.92585   0.08775   0.00000  Uiso   1.00
C491   C     0.97265   0.97265   0.08676   0.00000  Uiso   1.00
C492   C     0.84635   0.84635   0.24422   0.00000  Uiso   1.00
C493   C     0.89977   0.89977   0.17242   0.00000  Uiso   1.00
N494   N     0.80013   0.80013   0.16734   0.00000  Uiso   1.00
C495   C     0.81784   0.81784   0.27694   0.00000  Uiso   1.00
C496   C     0.71897   0.71897   0.23788   0.00000  Uiso   1.00
C497   C     0.77338   0.77338   0.20456   0.00000  Uiso   1.00
C498   C     0.94936   0.94936   0.82576   0.00000  Uiso   1.00
H499   H     0.94937   0.94937   0.30859   0.00000  Uiso   1.00
H500   H     0.05063  -0.00000   0.30859   0.00000  Uiso   1.00
H501   H     0.00000   0.05063   0.30859   0.00000  Uiso   1.00
H502   H     0.94937   0.94937   0.69141   0.00000  Uiso   1.00
H503   H     0.05063  -0.00000   0.69141   0.00000  Uiso   1.00
H504   H     0.00000   0.05063   0.69141   0.00000  Uiso   1.00
H505   H     0.33333   0.66667   0.79680   0.00000  Uiso   1.00
H506   H     0.33333   0.66667   0.20320   0.00000  Uiso   1.00
H507   H     0.66667   0.33333   0.20320   0.00000  Uiso   1.00
H508   H     0.66667   0.33333   0.79680   0.00000  Uiso   1.00
H509   H     0.00000   0.00000   0.29675   0.00000  Uiso   1.00
H510   H     0.00000   0.00000   0.70325   0.00000  Uiso   1.00
C511   C     0.69034   0.69034   0.75409   0.00000  Uiso   1.00
N512   N     0.63789   0.63789   0.74183   0.00000  Uiso   1.00
H513   H     0.81246   0.81246   0.59106   0.00000  Uiso   1.00
C514   C     0.30966  -0.00000   0.75409   0.00000  Uiso   1.00
N515   N     0.36211  -0.00000   0.74183   0.00000  Uiso   1.00
H516   H     0.18754  -0.00000   0.59106   0.00000  Uiso   1.00
C517   C     0.00000   0.30966   0.75409   0.00000  Uiso   1.00
N518   N     0.00000   0.36211   0.74183   0.00000  Uiso   1.00
H519   H     0.00000   0.18754   0.59106   0.00000  Uiso   1.00
C520   C     0.69034   0.69034   0.24591   0.00000  Uiso   1.00
N521   N     0.63789   0.63789   0.25817   0.00000  Uiso   1.00
H522   H     0.81246   0.81246   0.40894   0.00000  Uiso   1.00
C523   C     0.30966  -0.00000   0.24591   0.00000  Uiso   1.00
N524   N     0.36211  -0.00000   0.25817   0.00000  Uiso   1.00
H525   H     0.18754  -0.00000   0.40894   0.00000  Uiso   1.00
C526   C     0.00000   0.30966   0.24591   0.00000  Uiso   1.00
N527   N     0.00000   0.36211   0.25817   0.00000  Uiso   1.00
H528   H     0.00000   0.18754   0.40894   0.00000  Uiso   1.00
C529   C     0.66667   0.33333   0.66115   0.00000  Uiso   1.00
C530   C     0.66667   0.33333   0.33885   0.00000  Uiso   1.00
C531   C     0.33333   0.66667   0.33885   0.00000  Uiso   1.00
C532   C     0.33333   0.66667   0.66115   0.00000  Uiso   1.00
C533   C     0.00000   0.00000   0.16110   0.00000  Uiso   1.00
C534   C     0.00000   0.00000   0.83890   0.00000  Uiso   1.00
loop_
_geom_bond_atom_site_label_1
_geom_bond_atom_site_label_2
_geom_bond_distance
_geom_bond_site_symmetry_2
_ccdc_geom_bond_type
C1     C2      1.391   .     S
C1     C6      1.413   .     D
C1     H24     1.090   .     S
C2     C3      1.414   .     D
C2     H25     1.090   .     S
C3     C4      1.417   .     S
C3     N8      1.412   .     S
C4     C5      1.394   .     D
C4     H26     1.091   .     S
C5     C6      1.412   .     S
C5     H27     1.090   .     S
C6     C355    1.486   .     S
C7     N8      1.296   .     D
C7     C14     1.478   .     S
C7     H28     1.117   .     S
C9     C10     1.393   .     S
C9     C14     1.412   .     D
C9     H29     1.090   .     S
C10    C11     1.411   .     D
C10    H30     1.090   .     S
C11    C12     1.409   .     S
C11    C16     1.515   .     S
C12    C13     1.397   .     D
C12    H31     1.090   .     S
C13    C14     1.412   .     S
C13    H32     1.091   .     S
C15    C529    1.541   .     S
C15    C126    1.409   .     S
C15    C391    1.400   .     D
C16    C127    1.424   .     D
C16    C391    1.408   .     S
C17    C18     1.397   .     S
C17    H33     1.090   .     S
C17    C448    1.409   1_565 D
C18    H34     1.090   .     S
C18    C447    1.407   1_565 D
C19    C20     1.393   .     S
C19    H35     1.089   .     S
C19    C452    1.412   1_565 D
C20    H36     1.090   .     S
C20    C451    1.412   1_565 D
C21    H37     1.091   .     S
C21    C385    1.400   .     S
C21    C386    1.408   .     D
C22    N23     1.358   .     D
C22    N512    1.359   .     S
C22    C339    1.486   .     S
N23    C511    1.358   .     S
C38    C39     1.391   .     S
C38    C43     1.413   .     D
C38    H61     1.090   .     S
C39    C40     1.414   .     D
C39    H62     1.090   .     S
C40    C41     1.417   .     S
C40    N45     1.412   .     S
C41    C42     1.394   .     D
C41    H63     1.091   .     S
C42    C43     1.412   .     S
C42    H64     1.090   .     S
C43    C429    1.486   .     S
C44    N45     1.296   .     D
C44    C51     1.478   .     S
C44    H65     1.117   .     S
C46    C47     1.393   .     D
C46    C51     1.412   .     S
C46    H66     1.090   .     S
C47    C48     1.411   .     S
C47    H67     1.090   .     S
C48    C49     1.409   .     D
C48    C53     1.515   .     S
C49    C50     1.397   .     S
C49    H68     1.090   .     S
C50    C51     1.412   .     D
C50    H69     1.091   .     S
C52    C529    1.541   .     S
C52    C163    1.409   .     D
C52    C354    1.400   .     S
C53    C164    1.424   .     S
C53    C354    1.408   .     D
C54    C55     1.397   .     D
C54    H70     1.090   .     S
C54    C457    1.409   .     S
C55    H71     1.090   .     S
C55    C456    1.407   .     S
C56    C57     1.393   .     D
C56    H72     1.089   .     S
C56    C461    1.412   .     S
C57    H73     1.090   .     S
C57    C460    1.412   .     S
C58    H74     1.091   .     S
C58    C348    1.400   .     S
C58    C349    1.408   .     D
C59    N60     1.358   .     S
C59    C413    1.486   .     S
C59    N515    1.359   1_565 D
N60    C514    1.358   1_565 D
C75    C76     1.391   .     S
C75    C80     1.413   .     D
C75    H98     1.090   .     S
C76    C77     1.414   .     D
C76    H99     1.090   .     S
C77    C78     1.417   .     S
C77    N82     1.412   .     S
C78    C79     1.394   .     D
C78    H100    1.091   .     S
C79    C80     1.412   .     S
C79    H101    1.090   .     S
C80    C392    1.486   .     S
C81    N82     1.296   .     D
C81    C88     1.478   .     S
C81    H102    1.117   .     S
C83    C84     1.393   .     S
C83    C88     1.412   .     D
C83    H103    1.090   .     S
C84    C85     1.411   .     D
C84    H104    1.090   .     S
C85    C86     1.409   .     S
C85    C90     1.515   .     S
C86    C87     1.397   .     D
C86    H105    1.090   .     S
C87    C88     1.412   .     S
C87    H106    1.091   .     S
C89    C529    1.541   .     S
C89    C200    1.409   .     S
C89    C428    1.400   .     D
C90    C201    1.424   .     D
C90    C428    1.408   .     S
C91    C92     1.397   .     D
C91    H107    1.090   .     S
C91    C466    1.409   .     S
C92    H108    1.090   .     S
C92    C465    1.407   .     S
C93    C94     1.393   .     D
C93    H109    1.089   .     S
C93    C470    1.412   .     S
C94    H110    1.090   .     S
C94    C469    1.412   .     S
C95    H111    1.091   .     S
C95    C422    1.400   .     S
C95    C423    1.408   .     D
C96    N97     1.358   .     D
C96    N518    1.359   .     S
C96    C376    1.486   .     S
N97    C517    1.358   .     S
C112   C113    1.391   .     S
C112   C117    1.413   .     D
C112   H135    1.090   .     S
C113   C114    1.414   .     D
C113   H136    1.090   .     S
C114   C115    1.417   .     S
C114   N119    1.412   .     S
C115   C116    1.394   .     D
C115   H137    1.091   .     S
C116   C117    1.412   .     S
C116   H138    1.090   .     S
C117   C244    1.486   .     S
C118   N119    1.296   .     D
C118   C125    1.478   .     S
C118   H139    1.117   .     S
C120   C121    1.393   .     S
C120   C125    1.412   .     D
C120   H140    1.090   .     S
C121   C122    1.411   .     D
C121   H141    1.090   .     S
C122   C123    1.409   .     S
C122   C127    1.515   .     S
C123   C124    1.397   .     D
C123   H142    1.090   .     S
C124   C125    1.412   .     S
C124   H143    1.091   .     S
C126   C530    1.541   .     S
C126   C280    1.400   .     D
C127   C280    1.408   .     S
C128   C129    1.397   .     D
C128   H144    1.090   .     S
C128   C475    1.409   1_565 S
C129   H145    1.090   .     S
C129   C474    1.407   1_565 S
C130   C131    1.393   .     D
C130   H146    1.089   .     S
C130   C479    1.412   1_565 S
C131   H147    1.090   .     S
C131   C478    1.412   1_565 S
C132   H148    1.091   .     S
C132   C274    1.400   .     S
C132   C275    1.408   .     D
C133   N134    1.358   .     S
C133   N521    1.359   .     D
C133   C228    1.486   .     S
N134   C520    1.358   .     D
C149   C150    1.391   .     D
C149   C154    1.413   .     S
C149   H172    1.090   .     S
C150   C151    1.414   .     S
C150   H173    1.090   .     S
C151   C152    1.417   .     D
C151   N156    1.412   .     S
C152   C153    1.394   .     S
C152   H174    1.091   .     S
C153   C154    1.412   .     D
C153   H175    1.090   .     S
C154   C318    1.486   .     S
C155   N156    1.296   .     D
C155   C162    1.478   .     S
C155   H176    1.117   .     S
C157   C158    1.393   .     D
C157   C162    1.412   .     S
C157   H177    1.090   .     S
C158   C159    1.411   .     S
C158   H178    1.090   .     S
C159   C160    1.409   .     D
C159   C164    1.515   .     S
C160   C161    1.397   .     S
C160   H179    1.090   .     S
C161   C162    1.412   .     D
C161   H180    1.091   .     S
C163   C530    1.541   .     S
C163   C243    1.400   .     S
C164   C243    1.408   .     D
C165   C166    1.397   .     S
C165   H181    1.090   .     S
C165   C484    1.409   .     D
C166   H182    1.090   .     S
C166   C483    1.407   .     D
C167   C168    1.393   .     S
C167   H183    1.089   .     S
C167   C488    1.412   .     D
C168   H184    1.090   .     S
C168   C487    1.412   .     D
C169   H185    1.091   .     S
C169   C237    1.400   .     S
C169   C238    1.408   .     D
C170   N171    1.358   .     S
C170   C302    1.486   .     S
C170   N524    1.359   1_565 D
N171   C523    1.358   1_565 D
C186   C187    1.391   .     S
C186   C191    1.413   .     D
C186   H209    1.090   .     S
C187   C188    1.414   .     D
C187   H210    1.090   .     S
C188   C189    1.417   .     S
C188   N193    1.412   .     S
C189   C190    1.394   .     D
C189   H211    1.091   .     S
C190   C191    1.412   .     S
C190   H212    1.090   .     S
C191   C281    1.486   .     S
C192   N193    1.296   .     D
C192   C199    1.478   .     S
C192   H213    1.117   .     S
C194   C195    1.393   .     S
C194   C199    1.412   .     D
C194   H214    1.090   .     S
C195   C196    1.411   .     D
C195   H215    1.090   .     S
C196   C197    1.409   .     S
C196   C201    1.515   .     S
C197   C198    1.397   .     D
C197   H216    1.090   .     S
C198   C199    1.412   .     S
C198   H217    1.091   .     S
C200   C530    1.541   .     S
C200   C317    1.400   .     D
C201   C317    1.408   .     S
C202   C203    1.397   .     S
C202   H218    1.090   .     S
C202   C493    1.409   .     D
C203   H219    1.090   .     S
C203   C492    1.407   .     D
C204   C205    1.393   .     S
C204   H220    1.089   .     S
C204   C497    1.412   .     D
C205   H221    1.090   .     S
C205   C496    1.412   .     D
C206   H222    1.091   .     S
C206   C311    1.400   .     S
C206   C312    1.408   .     D
C207   N208    1.358   .     S
C207   N527    1.359   .     D
C207   C265    1.486   .     S
N208   C526    1.358   .     D
C223   C224    1.391   .     S
C223   C228    1.413   .     D
C223   H246    1.090   .     S
C224   C225    1.414   .     D
C224   H247    1.090   .     S
C225   C226    1.417   .     S
C225   N230    1.412   .     S
C226   C227    1.394   .     D
C226   H248    1.091   .     S
C227   C228    1.412   .     S
C227   H249    1.090   .     S
C229   N230    1.296   .     D
C229   C236    1.478   .     S
C229   H250    1.117   .     S
C231   C232    1.393   .     S
C231   C236    1.412   .     D
C231   H251    1.090   .     S
C232   C233    1.411   .     D
C232   H252    1.090   .     S
C233   C234    1.409   .     S
C233   C238    1.515   .     S
C234   C235    1.397   .     D
C234   H253    1.090   .     S
C235   C236    1.412   .     S
C235   H254    1.091   .     S
C237   C531    1.541   .     S
C237   C348    1.409   .     D
C238   C349    1.424   .     S
C239   C240    1.397   .     D
C239   H255    1.090   .     S
C239   C484    1.409   1_655 S
C240   H256    1.090   .     S
C240   C483    1.407   1_655 S
C241   C242    1.393   .     D
C241   H257    1.089   .     S
C241   C488    1.412   1_655 S
C242   H258    1.090   .     S
C242   C487    1.412   1_655 S
C243   H259    1.091   .     S
C244   N245    1.358   .     D
C244   N521    1.359   .     S
N245   C520    1.358   .     S
C260   C261    1.391   .     S
C260   C265    1.413   .     D
C260   H283    1.090   .     S
C261   C262    1.414   .     D
C261   H284    1.090   .     S
C262   C263    1.417   .     S
C262   N267    1.412   .     S
C263   C264    1.394   .     D
C263   H285    1.091   .     S
C264   C265    1.412   .     S
C264   H286    1.090   .     S
C266   N267    1.296   .     D
C266   C273    1.478   .     S
C266   H287    1.117   .     S
C268   C269    1.393   .     S
C268   C273    1.412   .     D
C268   H288    1.090   .     S
C269   C270    1.411   .     D
C269   H289    1.090   .     S
C270   C271    1.409   .     S
C270   C275    1.515   .     S
C271   C272    1.397   .     D
C271   H290    1.090   .     S
C272   C273    1.412   .     S
C272   H291    1.091   .     S
C274   C531    1.541   .     S
C274   C385    1.409   .     D
C275   C386    1.424   .     S
C276   C277    1.397   .     S
C276   H292    1.090   .     S
C276   C475    1.409   .     D
C277   H293    1.090   .     S
C277   C474    1.407   .     D
C278   C279    1.393   .     S
C278   H294    1.089   .     S
C278   C479    1.412   .     D
C279   H295    1.090   .     S
C279   C478    1.412   .     D
C280   H296    1.091   .     S
C281   N282    1.358   .     D
C281   N527    1.359   1_655 S
N282   C526    1.358   1_655 S
C297   C298    1.391   .     S
C297   C302    1.413   .     D
C297   H320    1.090   .     S
C298   C299    1.414   .     D
C298   H321    1.090   .     S
C299   C300    1.417   .     S
C299   N304    1.412   .     S
C300   C301    1.394   .     D
C300   H322    1.091   .     S
C301   C302    1.412   .     S
C301   H323    1.090   .     S
C303   N304    1.296   .     D
C303   C310    1.478   .     S
C303   H324    1.117   .     S
C305   C306    1.393   .     S
C305   C310    1.412   .     D
C305   H325    1.090   .     S
C306   C307    1.411   .     D
C306   H326    1.090   .     S
C307   C308    1.409   .     S
C307   C312    1.515   .     S
C308   C309    1.397   .     D
C308   H327    1.090   .     S
C309   C310    1.412   .     S
C309   H328    1.091   .     S
C311   C531    1.541   .     S
C311   C422    1.409   .     D
C312   C423    1.424   .     S
C313   C314    1.397   .     D
C313   H329    1.090   .     S
C313   C493    1.409   .     S
C314   H330    1.090   .     S
C314   C492    1.407   .     S
C315   C316    1.393   .     D
C315   H331    1.089   .     S
C315   C497    1.412   .     S
C316   H332    1.090   .     S
C316   C496    1.412   .     S
C317   H333    1.091   .     S
C318   N319    1.358   .     D
C318   N524    1.359   .     S
N319   C523    1.358   .     S
C334   C335    1.391   .     S
C334   C339    1.413   .     D
C334   H357    1.090   .     S
C335   C336    1.414   .     D
C335   H358    1.090   .     S
C336   C337    1.417   .     S
C336   N341    1.412   .     S
C337   C338    1.394   .     D
C337   H359    1.091   .     S
C338   C339    1.412   .     S
C338   H360    1.090   .     S
C340   N341    1.296   .     D
C340   C347    1.478   .     S
C340   H361    1.117   .     S
C342   C343    1.393   .     S
C342   C347    1.412   .     D
C342   H362    1.090   .     S
C343   C344    1.411   .     D
C343   H363    1.090   .     S
C344   C345    1.409   .     S
C344   C349    1.515   .     S
C345   C346    1.397   .     D
C345   H364    1.090   .     S
C346   C347    1.412   .     S
C346   H365    1.091   .     S
C348   C532    1.541   .     S
C350   C351    1.397   .     S
C350   H366    1.090   .     S
C350   C457    1.409   1_655 D
C351   H367    1.090   .     S
C351   C456    1.407   1_655 D
C352   C353    1.393   .     S
C352   H368    1.089   .     S
C352   C461    1.412   1_655 D
C353   H369    1.090   .     S
C353   C460    1.412   1_655 D
C354   H370    1.091   .     S
C355   N356    1.358   .     S
C355   N512    1.359   .     D
N356   C511    1.358   .     D
C371   C372    1.391   .     S
C371   C376    1.413   .     D
C371   H394    1.090   .     S
C372   C373    1.414   .     D
C372   H395    1.090   .     S
C373   C374    1.417   .     S
C373   N378    1.412   .     S
C374   C375    1.394   .     D
C374   H396    1.091   .     S
C375   C376    1.412   .     S
C375   H397    1.090   .     S
C377   N378    1.296   .     D
C377   C384    1.478   .     S
C377   H398    1.117   .     S
C379   C380    1.393   .     S
C379   C384    1.412   .     D
C379   H399    1.090   .     S
C380   C381    1.411   .     D
C380   H400    1.090   .     S
C381   C382    1.409   .     S
C381   C386    1.515   .     S
C382   C383    1.397   .     D
C382   H401    1.090   .     S
C383   C384    1.412   .     S
C383   H402    1.091   .     S
C385   C532    1.541   .     S
C387   C388    1.397   .     D
C387   H403    1.090   .     S
C387   C448    1.409   .     S
C388   H404    1.090   .     S
C388   C447    1.407   .     S
C389   C390    1.393   .     D
C389   H405    1.089   .     S
C389   C452    1.412   .     S
C390   H406    1.090   .     S
C390   C451    1.412   .     S
C391   H407    1.091   .     S
C392   N393    1.358   .     S
C392   N518    1.359   1_655 D
N393   C517    1.358   1_655 D
C408   C409    1.391   .     S
C408   C413    1.413   .     D
C408   H431    1.090   .     S
C409   C410    1.414   .     D
C409   H432    1.090   .     S
C410   C411    1.417   .     S
C410   N415    1.412   .     S
C411   C412    1.394   .     D
C411   H433    1.091   .     S
C412   C413    1.412   .     S
C412   H434    1.090   .     S
C414   N415    1.296   .     D
C414   C421    1.478   .     S
C414   H435    1.117   .     S
C416   C417    1.393   .     S
C416   C421    1.412   .     D
C416   H436    1.090   .     S
C417   C418    1.411   .     D
C417   H437    1.090   .     S
C418   C419    1.409   .     S
C418   C423    1.515   .     S
C419   C420    1.397   .     D
C419   H438    1.090   .     S
C420   C421    1.412   .     S
C420   H439    1.091   .     S
C422   C532    1.541   .     S
C424   C425    1.397   .     S
C424   H440    1.090   .     S
C424   C466    1.409   .     D
C425   H441    1.090   .     S
C425   C465    1.407   .     D
C426   C427    1.393   .     S
C426   H442    1.089   .     S
C426   C470    1.412   .     D
C427   H443    1.090   .     S
C427   C469    1.412   .     D
C428   H444    1.091   .     S
C429   N430    1.358   .     D
C429   N515    1.359   .     S
N430   C514    1.358   .     S
C445   C448    1.516   .     S
C445   C480    1.406   .     S
C445   C472    1.425   1_556 D
C446   C534    1.540   .     S
C446   C480    1.400   .     D
C446   C473    1.409   1_556 S
C447   C450    1.501   .     S
C447   C18     1.407   1_545 D
C448   C17     1.409   1_545 D
N449   C450    1.278   .     D
N449   C452    1.419   .     S
C450   H516    1.107   .     S
C451   C514    1.485   .     S
C451   C20     1.412   1_545 D
C452   C19     1.412   1_545 D
C453   C472    1.406   .     S
C453   C473    1.400   .     D
C453   H500    1.091   .     S
C454   C457    1.516   .     S
C454   C489    1.406   .     S
C454   C481    1.425   1_556 D
C455   C534    1.540   .     S
C455   C489    1.400   .     D
C455   C482    1.409   1_556 S
C456   C459    1.501   .     S
C456   C351    1.407   1_455 D
C457   C350    1.409   1_455 D
N458   C459    1.278   .     D
N458   C461    1.419   .     S
C459   H519    1.107   .     S
C460   C517    1.485   .     S
C460   C353    1.412   1_455 D
C461   C352    1.412   1_455 D
C462   C481    1.406   .     S
C462   C482    1.400   .     D
C462   H501    1.091   .     S
C463   C466    1.516   .     S
C463   C498    1.406   .     S
C463   C490    1.425   1_556 D
C464   C498    1.400   .     D
C464   C491    1.409   1_556 S
C464   C534    1.540   1_665 S
C465   C468    1.501   .     S
N467   C468    1.278   .     D
N467   C470    1.419   .     S
C468   H513    1.107   .     S
C469   C511    1.485   .     S
C471   C490    1.406   .     S
C471   C491    1.400   .     D
C471   H499    1.091   .     S
C472   C475    1.516   .     S
C472   C445    1.425   1_554 D
C473   C533    1.540   .     S
C473   C446    1.409   1_554 S
C474   C477    1.501   .     S
C474   C129    1.407   1_545 S
C475   C128    1.409   1_545 S
N476   C477    1.278   .     D
N476   C479    1.419   .     S
C477   H525    1.107   .     S
C478   C523    1.485   .     S
C478   C131    1.412   1_545 S
C479   C130    1.412   1_545 S
C480   H503    1.091   .     S
C481   C484    1.516   .     S
C481   C454    1.425   1_554 D
C482   C533    1.540   .     S
C482   C455    1.409   1_554 S
C483   C486    1.501   .     S
C483   C240    1.407   1_455 S
C484   C239    1.409   1_455 S
N485   C486    1.278   .     D
N485   C488    1.419   .     S
C486   H528    1.107   .     S
C487   C526    1.485   .     S
C487   C242    1.412   1_455 S
C488   C241    1.412   1_455 S
C489   H504    1.091   .     S
C490   C493    1.516   .     S
C490   C463    1.425   1_554 D
C491   C464    1.409   1_554 S
C491   C533    1.540   1_665 S
C492   C495    1.501   .     S
N494   C495    1.278   .     D
N494   C497    1.419   .     S
C495   H522    1.107   .     S
C496   C520    1.485   .     S
C498   H502    1.091   .     S
H505   C532    1.101   .     S
H506   C531    1.101   .     S
H507   C530    1.101   .     S
H508   C529    1.101   .     S
H509   C533    1.101   .     S
H510   C534    1.101   .     S
C514   N60     1.358   1_545 D
N515   C59     1.359   1_545 D
C517   N393    1.358   1_455 D
N518   C392    1.359   1_455 D
C523   N171    1.358   1_545 D
N524   C170    1.359   1_545 D
C526   N282    1.358   1_455 S
N527   C281    1.359   1_455 S
C533   C491    1.540   1_445 S
C534   C464    1.540   1_445 S
