data_926
_audit_creation_date              2023-09-08
_audit_creation_method            'Materials Studio'
_symmetry_space_group_name_H-M    'P1'
_symmetry_Int_Tables_number       1
_symmetry_cell_setting            triclinic
loop_
_symmetry_equiv_pos_as_xyz
  x,y,z
_cell_length_a                    51.1228
_cell_length_b                    51.1228
_cell_length_c                    12.6952
_cell_angle_alpha                 90.0000
_cell_angle_beta                  90.0000
_cell_angle_gamma                 120.0000
loop_
_atom_site_label
_atom_site_type_symbol
_atom_site_fract_x
_atom_site_fract_y
_atom_site_fract_z
_atom_site_U_iso_or_equiv
_atom_site_adp_type
_atom_site_occupancy
C1     C     0.27208   0.24473   0.85965   0.00000  Uiso   1.00
C2     C     0.24500   0.21750   0.84947   0.00000  Uiso   1.00
C3     C     0.15249   0.12515   0.68197   0.00000  Uiso   1.00
C4     C     0.12728   0.09995   0.63937   0.00000  Uiso   1.00
C5     C     0.35404   0.32787   0.86159   0.00000  Uiso   1.00
C6     C     0.41094   0.35537   0.86530   0.00000  Uiso   1.00
C7     C     0.43840   0.35586   0.86043   0.00000  Uiso   1.00
C8     C     0.43899   0.32864   0.84691   0.00000  Uiso   1.00
C9     C     0.41121   0.30112   0.84214   0.00000  Uiso   1.00
C10    C     0.38389   0.30089   0.84696   0.00000  Uiso   1.00
C11    C     0.38317   0.32801   0.85807   0.00000  Uiso   1.00
C12    C     0.49146   0.34814   0.80920   0.00000  Uiso   1.00
N13    N     0.46587   0.32727   0.84671   0.00000  Uiso   1.00
C14    C     0.54796   0.37219   0.82598   0.00000  Uiso   1.00
C15    C     0.57328   0.37067   0.85860   0.00000  Uiso   1.00
C16    C     0.57057   0.34282   0.88755   0.00000  Uiso   1.00
C17    C     0.54237   0.31630   0.87420   0.00000  Uiso   1.00
C18    C     0.51698   0.31791   0.84469   0.00000  Uiso   1.00
C19    C     0.51909   0.34605   0.82409   0.00000  Uiso   1.00
C20    C     0.64068   0.33654   0.94463   0.00000  Uiso   1.00
C21    C     0.59580   0.34120   0.94393   0.00000  Uiso   1.00
C22    C     0.64597   0.67214   0.63841   0.00000  Uiso   1.00
C23    C     0.58906   0.64464   0.63471   0.00000  Uiso   1.00
C24    C     0.56160   0.64414   0.63958   0.00000  Uiso   1.00
C25    C     0.56101   0.67136   0.65306   0.00000  Uiso   1.00
C26    C     0.58879   0.69888   0.65782   0.00000  Uiso   1.00
C27    C     0.61611   0.69911   0.65301   0.00000  Uiso   1.00
C28    C     0.61684   0.67199   0.64192   0.00000  Uiso   1.00
C29    C     0.50853   0.65186   0.69077   0.00000  Uiso   1.00
N30    N     0.53412   0.67273   0.65326   0.00000  Uiso   1.00
C31    C     0.45204   0.62781   0.67398   0.00000  Uiso   1.00
C32    C     0.42672   0.62933   0.64138   0.00000  Uiso   1.00
C33    C     0.42943   0.65718   0.61244   0.00000  Uiso   1.00
C34    C     0.45763   0.68369   0.62580   0.00000  Uiso   1.00
C35    C     0.48301   0.68208   0.65531   0.00000  Uiso   1.00
C36    C     0.48090   0.65394   0.67588   0.00000  Uiso   1.00
C37    C     0.35932   0.66346   0.55537   0.00000  Uiso   1.00
C38    C     0.40420   0.65880   0.55607   0.00000  Uiso   1.00
C39    C     0.72792   0.75527   0.64035   0.00000  Uiso   1.00
C40    C     0.75500   0.78250   0.65052   0.00000  Uiso   1.00
C41    C     0.84751   0.87485   0.81802   0.00000  Uiso   1.00
C42    C     0.87272   0.90005   0.86063   0.00000  Uiso   1.00
N43    N     0.67213   0.69909   0.63730   0.00000  Uiso   1.00
C44    C     0.38158   0.66108   0.61147   0.00000  Uiso   1.00
N45    N     0.30091   0.32787   0.13730   0.00000  Uiso   1.00
C46    C     0.61842   0.33892   0.11147   0.00000  Uiso   1.00
H47    H     0.29326   0.24450   0.86414   0.00000  Uiso   1.00
H48    H     0.24508   0.19626   0.84531   0.00000  Uiso   1.00
H49    H     0.17292   0.12415   0.69800   0.00000  Uiso   1.00
H50    H     0.12839   0.07963   0.62226   0.00000  Uiso   1.00
H51    H     0.41088   0.37649   0.87600   0.00000  Uiso   1.00
H52    H     0.45938   0.37730   0.86943   0.00000  Uiso   1.00
H53    H     0.41135   0.28000   0.83309   0.00000  Uiso   1.00
H54    H     0.36273   0.27946   0.84266   0.00000  Uiso   1.00
H55    H     0.49415   0.36868   0.76832   0.00000  Uiso   1.00
H56    H     0.55041   0.39416   0.80752   0.00000  Uiso   1.00
H57    H     0.59504   0.39138   0.86558   0.00000  Uiso   1.00
H58    H     0.54008   0.29443   0.89269   0.00000  Uiso   1.00
H59    H     0.49508   0.29730   0.84032   0.00000  Uiso   1.00
H60    H     0.58913   0.62351   0.62404   0.00000  Uiso   1.00
H61    H     0.54063   0.62270   0.63059   0.00000  Uiso   1.00
H62    H     0.58865   0.72000   0.66684   0.00000  Uiso   1.00
H63    H     0.63727   0.72054   0.65729   0.00000  Uiso   1.00
H64    H     0.50585   0.63131   0.73164   0.00000  Uiso   1.00
H65    H     0.44958   0.60583   0.69242   0.00000  Uiso   1.00
H66    H     0.40496   0.60861   0.63437   0.00000  Uiso   1.00
H67    H     0.45991   0.70557   0.60733   0.00000  Uiso   1.00
H68    H     0.50492   0.70269   0.65968   0.00000  Uiso   1.00
H69    H     0.70674   0.75550   0.63586   0.00000  Uiso   1.00
H70    H     0.75492   0.80374   0.65468   0.00000  Uiso   1.00
H71    H     0.82708   0.87585   0.80200   0.00000  Uiso   1.00
H72    H     0.87161   0.92037   0.87773   0.00000  Uiso   1.00
H73    H     0.38173   0.66134   0.69738   0.00000  Uiso   1.00
H74    H     0.61827   0.33866   0.19738   0.00000  Uiso   1.00
C75    C     0.75527   0.02735   0.85965   0.00000  Uiso   1.00
C76    C     0.78250   0.02750   0.84947   0.00000  Uiso   1.00
C77    C     0.87485   0.02734   0.68197   0.00000  Uiso   1.00
C78    C     0.90005   0.02733   0.63937   0.00000  Uiso   1.00
C79    C     0.67213   0.02617   0.86159   0.00000  Uiso   1.00
C80    C     0.64463   0.05557   0.86530   0.00000  Uiso   1.00
C81    C     0.64414   0.08254   0.86043   0.00000  Uiso   1.00
C82    C     0.67136   0.11035   0.84691   0.00000  Uiso   1.00
C83    C     0.69888   0.11009   0.84214   0.00000  Uiso   1.00
C84    C     0.69911   0.08300   0.84696   0.00000  Uiso   1.00
C85    C     0.67199   0.05516   0.85807   0.00000  Uiso   1.00
C86    C     0.65186   0.14332   0.80920   0.00000  Uiso   1.00
N87    N     0.67273   0.13860   0.84671   0.00000  Uiso   1.00
C88    C     0.62781   0.17577   0.82598   0.00000  Uiso   1.00
C89    C     0.62933   0.20261   0.85860   0.00000  Uiso   1.00
C90    C     0.65718   0.22775   0.88755   0.00000  Uiso   1.00
C91    C     0.68370   0.22607   0.87420   0.00000  Uiso   1.00
C92    C     0.68209   0.19907   0.84469   0.00000  Uiso   1.00
C93    C     0.65395   0.17304   0.82409   0.00000  Uiso   1.00
C94    C     0.66346   0.30414   0.94463   0.00000  Uiso   1.00
C95    C     0.65880   0.25460   0.94393   0.00000  Uiso   1.00
C96    C     0.32786   0.97383   0.63841   0.00000  Uiso   1.00
C97    C     0.35536   0.94442   0.63471   0.00000  Uiso   1.00
C98    C     0.35586   0.91746   0.63958   0.00000  Uiso   1.00
C99    C     0.32864   0.88965   0.65306   0.00000  Uiso   1.00
C100   C     0.30112   0.88991   0.65782   0.00000  Uiso   1.00
C101   C     0.30089   0.91700   0.65301   0.00000  Uiso   1.00
C102   C     0.32801   0.94485   0.64192   0.00000  Uiso   1.00
C103   C     0.34814   0.85667   0.69077   0.00000  Uiso   1.00
N104   N     0.32727   0.86139   0.65326   0.00000  Uiso   1.00
C105   C     0.37219   0.82423   0.67398   0.00000  Uiso   1.00
C106   C     0.37067   0.79739   0.64138   0.00000  Uiso   1.00
C107   C     0.34282   0.77225   0.61244   0.00000  Uiso   1.00
C108   C     0.31631   0.77394   0.62580   0.00000  Uiso   1.00
C109   C     0.31792   0.80093   0.65531   0.00000  Uiso   1.00
C110   C     0.34606   0.82696   0.67588   0.00000  Uiso   1.00
C111   C     0.33654   0.69586   0.55537   0.00000  Uiso   1.00
C112   C     0.34120   0.74540   0.55607   0.00000  Uiso   1.00
C113   C     0.24473   0.97265   0.64035   0.00000  Uiso   1.00
C114   C     0.21750   0.97250   0.65052   0.00000  Uiso   1.00
C115   C     0.12515   0.97266   0.81802   0.00000  Uiso   1.00
C116   C     0.09995   0.97267   0.86063   0.00000  Uiso   1.00
N117   N     0.30091   0.97304   0.63730   0.00000  Uiso   1.00
C118   C     0.33892   0.72050   0.61147   0.00000  Uiso   1.00
N119   N     0.67213   0.97304   0.13730   0.00000  Uiso   1.00
C120   C     0.66108   0.27950   0.11147   0.00000  Uiso   1.00
H121   H     0.75550   0.04876   0.86414   0.00000  Uiso   1.00
H122   H     0.80374   0.04882   0.84531   0.00000  Uiso   1.00
H123   H     0.87585   0.04877   0.69800   0.00000  Uiso   1.00
H124   H     0.92037   0.04876   0.62226   0.00000  Uiso   1.00
H125   H     0.62351   0.03439   0.87600   0.00000  Uiso   1.00
H126   H     0.62270   0.08208   0.86943   0.00000  Uiso   1.00
H127   H     0.72000   0.13135   0.83309   0.00000  Uiso   1.00
H128   H     0.72054   0.08327   0.84266   0.00000  Uiso   1.00
H129   H     0.63132   0.12547   0.76832   0.00000  Uiso   1.00
H130   H     0.60584   0.15625   0.80752   0.00000  Uiso   1.00
H131   H     0.60862   0.20366   0.86558   0.00000  Uiso   1.00
H132   H     0.70557   0.24565   0.89269   0.00000  Uiso   1.00
H133   H     0.70270   0.19778   0.84032   0.00000  Uiso   1.00
H134   H     0.37649   0.96562   0.62404   0.00000  Uiso   1.00
H135   H     0.37730   0.91793   0.63059   0.00000  Uiso   1.00
H136   H     0.28000   0.86865   0.66684   0.00000  Uiso   1.00
H137   H     0.27946   0.91673   0.65729   0.00000  Uiso   1.00
H138   H     0.36869   0.87454   0.73164   0.00000  Uiso   1.00
H139   H     0.39417   0.84375   0.69242   0.00000  Uiso   1.00
H140   H     0.39139   0.79635   0.63437   0.00000  Uiso   1.00
H141   H     0.29443   0.75434   0.60733   0.00000  Uiso   1.00
H142   H     0.29731   0.80223   0.65968   0.00000  Uiso   1.00
H143   H     0.24450   0.95124   0.63586   0.00000  Uiso   1.00
H144   H     0.19626   0.95118   0.65468   0.00000  Uiso   1.00
H145   H     0.12415   0.95123   0.80200   0.00000  Uiso   1.00
H146   H     0.07963   0.95124   0.87773   0.00000  Uiso   1.00
H147   H     0.33866   0.72039   0.69738   0.00000  Uiso   1.00
H148   H     0.66134   0.27961   0.19738   0.00000  Uiso   1.00
C149   C     0.97265   0.72792   0.85965   0.00000  Uiso   1.00
C150   C     0.97250   0.75500   0.84947   0.00000  Uiso   1.00
C151   C     0.97266   0.84751   0.68197   0.00000  Uiso   1.00
C152   C     0.97267   0.87272   0.63937   0.00000  Uiso   1.00
C153   C     0.97383   0.64596   0.86159   0.00000  Uiso   1.00
C154   C     0.94443   0.58906   0.86530   0.00000  Uiso   1.00
C155   C     0.91746   0.56160   0.86043   0.00000  Uiso   1.00
C156   C     0.88965   0.56101   0.84691   0.00000  Uiso   1.00
C157   C     0.88991   0.58879   0.84214   0.00000  Uiso   1.00
C158   C     0.91700   0.61611   0.84696   0.00000  Uiso   1.00
C159   C     0.94484   0.61683   0.85807   0.00000  Uiso   1.00
C160   C     0.85668   0.50854   0.80920   0.00000  Uiso   1.00
N161   N     0.86140   0.53413   0.84671   0.00000  Uiso   1.00
C162   C     0.82423   0.45204   0.82598   0.00000  Uiso   1.00
C163   C     0.79739   0.42672   0.85860   0.00000  Uiso   1.00
C164   C     0.77225   0.42943   0.88755   0.00000  Uiso   1.00
C165   C     0.77393   0.45763   0.87420   0.00000  Uiso   1.00
C166   C     0.80093   0.48302   0.84469   0.00000  Uiso   1.00
C167   C     0.82696   0.48091   0.82409   0.00000  Uiso   1.00
C168   C     0.69586   0.35932   0.94463   0.00000  Uiso   1.00
C169   C     0.74540   0.40420   0.94393   0.00000  Uiso   1.00
C170   C     0.02617   0.35403   0.63841   0.00000  Uiso   1.00
C171   C     0.05558   0.41094   0.63471   0.00000  Uiso   1.00
C172   C     0.08254   0.43840   0.63958   0.00000  Uiso   1.00
C173   C     0.11035   0.43899   0.65306   0.00000  Uiso   1.00
C174   C     0.11009   0.41121   0.65782   0.00000  Uiso   1.00
C175   C     0.08300   0.38389   0.65301   0.00000  Uiso   1.00
C176   C     0.05515   0.38316   0.64192   0.00000  Uiso   1.00
C177   C     0.14333   0.49147   0.69077   0.00000  Uiso   1.00
N178   N     0.13861   0.46588   0.65326   0.00000  Uiso   1.00
C179   C     0.17577   0.54796   0.67398   0.00000  Uiso   1.00
C180   C     0.20261   0.57328   0.64138   0.00000  Uiso   1.00
C181   C     0.22775   0.57057   0.61244   0.00000  Uiso   1.00
C182   C     0.22606   0.54237   0.62580   0.00000  Uiso   1.00
C183   C     0.19907   0.51699   0.65531   0.00000  Uiso   1.00
C184   C     0.17304   0.51910   0.67588   0.00000  Uiso   1.00
C185   C     0.30414   0.64068   0.55537   0.00000  Uiso   1.00
C186   C     0.25460   0.59580   0.55607   0.00000  Uiso   1.00
C187   C     0.02735   0.27208   0.64035   0.00000  Uiso   1.00
C188   C     0.02750   0.24500   0.65052   0.00000  Uiso   1.00
C189   C     0.02734   0.15249   0.81802   0.00000  Uiso   1.00
C190   C     0.02733   0.12728   0.86063   0.00000  Uiso   1.00
N191   N     0.02696   0.32787   0.63730   0.00000  Uiso   1.00
C192   C     0.27950   0.61842   0.61147   0.00000  Uiso   1.00
N193   N     0.02696   0.69909   0.13730   0.00000  Uiso   1.00
C194   C     0.72050   0.38158   0.11147   0.00000  Uiso   1.00
H195   H     0.95124   0.70674   0.86414   0.00000  Uiso   1.00
H196   H     0.95118   0.75492   0.84531   0.00000  Uiso   1.00
H197   H     0.95123   0.82708   0.69800   0.00000  Uiso   1.00
H198   H     0.95124   0.87161   0.62226   0.00000  Uiso   1.00
H199   H     0.96561   0.58912   0.87600   0.00000  Uiso   1.00
H200   H     0.91792   0.54062   0.86943   0.00000  Uiso   1.00
H201   H     0.86865   0.58865   0.83309   0.00000  Uiso   1.00
H202   H     0.91673   0.63727   0.84266   0.00000  Uiso   1.00
H203   H     0.87453   0.50585   0.76832   0.00000  Uiso   1.00
H204   H     0.84375   0.44959   0.80752   0.00000  Uiso   1.00
H205   H     0.79634   0.40496   0.86558   0.00000  Uiso   1.00
H206   H     0.75435   0.45992   0.89269   0.00000  Uiso   1.00
H207   H     0.80222   0.50492   0.84032   0.00000  Uiso   1.00
H208   H     0.03438   0.41087   0.62404   0.00000  Uiso   1.00
H209   H     0.08207   0.45937   0.63059   0.00000  Uiso   1.00
H210   H     0.13135   0.41135   0.66684   0.00000  Uiso   1.00
H211   H     0.08327   0.36273   0.65729   0.00000  Uiso   1.00
H212   H     0.12546   0.49415   0.73164   0.00000  Uiso   1.00
H213   H     0.15625   0.55042   0.69242   0.00000  Uiso   1.00
H214   H     0.20365   0.59504   0.63437   0.00000  Uiso   1.00
H215   H     0.24566   0.54009   0.60733   0.00000  Uiso   1.00
H216   H     0.19777   0.49508   0.65968   0.00000  Uiso   1.00
H217   H     0.04876   0.29326   0.63586   0.00000  Uiso   1.00
H218   H     0.04882   0.24508   0.65468   0.00000  Uiso   1.00
H219   H     0.04877   0.17292   0.80200   0.00000  Uiso   1.00
H220   H     0.04876   0.12839   0.87773   0.00000  Uiso   1.00
H221   H     0.27961   0.61827   0.69738   0.00000  Uiso   1.00
H222   H     0.72039   0.38173   0.19738   0.00000  Uiso   1.00
C223   C     0.27208   0.24473   0.14035   0.00000  Uiso   1.00
C224   C     0.24500   0.21750   0.15053   0.00000  Uiso   1.00
C225   C     0.15249   0.12515   0.31803   0.00000  Uiso   1.00
C226   C     0.12728   0.09995   0.36063   0.00000  Uiso   1.00
C227   C     0.35404   0.32787   0.13841   0.00000  Uiso   1.00
C228   C     0.41094   0.35537   0.13470   0.00000  Uiso   1.00
C229   C     0.43840   0.35586   0.13957   0.00000  Uiso   1.00
C230   C     0.43899   0.32864   0.15309   0.00000  Uiso   1.00
C231   C     0.41121   0.30112   0.15786   0.00000  Uiso   1.00
C232   C     0.38389   0.30089   0.15304   0.00000  Uiso   1.00
C233   C     0.38317   0.32801   0.14193   0.00000  Uiso   1.00
C234   C     0.49146   0.34814   0.19080   0.00000  Uiso   1.00
N235   N     0.46587   0.32727   0.15329   0.00000  Uiso   1.00
C236   C     0.54796   0.37219   0.17402   0.00000  Uiso   1.00
C237   C     0.57328   0.37067   0.14140   0.00000  Uiso   1.00
C238   C     0.57057   0.34282   0.11245   0.00000  Uiso   1.00
C239   C     0.54237   0.31630   0.12580   0.00000  Uiso   1.00
C240   C     0.51698   0.31791   0.15531   0.00000  Uiso   1.00
C241   C     0.51909   0.34605   0.17591   0.00000  Uiso   1.00
C242   C     0.64068   0.33654   0.05537   0.00000  Uiso   1.00
C243   C     0.59580   0.34120   0.05607   0.00000  Uiso   1.00
C244   C     0.64597   0.67214   0.36159   0.00000  Uiso   1.00
C245   C     0.58906   0.64464   0.36529   0.00000  Uiso   1.00
C246   C     0.56160   0.64414   0.36042   0.00000  Uiso   1.00
C247   C     0.56101   0.67136   0.34694   0.00000  Uiso   1.00
C248   C     0.58879   0.69888   0.34218   0.00000  Uiso   1.00
C249   C     0.61611   0.69911   0.34699   0.00000  Uiso   1.00
C250   C     0.61684   0.67199   0.35808   0.00000  Uiso   1.00
C251   C     0.50853   0.65186   0.30923   0.00000  Uiso   1.00
N252   N     0.53412   0.67273   0.34674   0.00000  Uiso   1.00
C253   C     0.45204   0.62781   0.32602   0.00000  Uiso   1.00
C254   C     0.42672   0.62933   0.35862   0.00000  Uiso   1.00
C255   C     0.42943   0.65718   0.38756   0.00000  Uiso   1.00
C256   C     0.45763   0.68369   0.37420   0.00000  Uiso   1.00
C257   C     0.48301   0.68208   0.34469   0.00000  Uiso   1.00
C258   C     0.48090   0.65394   0.32412   0.00000  Uiso   1.00
C259   C     0.35932   0.66346   0.44463   0.00000  Uiso   1.00
C260   C     0.40420   0.65880   0.44393   0.00000  Uiso   1.00
C261   C     0.72792   0.75527   0.35965   0.00000  Uiso   1.00
C262   C     0.75500   0.78250   0.34948   0.00000  Uiso   1.00
C263   C     0.84751   0.87485   0.18198   0.00000  Uiso   1.00
C264   C     0.87272   0.90005   0.13937   0.00000  Uiso   1.00
N265   N     0.67213   0.69909   0.36270   0.00000  Uiso   1.00
C266   C     0.38158   0.66108   0.38853   0.00000  Uiso   1.00
N267   N     0.30091   0.32787   0.86270   0.00000  Uiso   1.00
C268   C     0.61842   0.33892   0.88853   0.00000  Uiso   1.00
H269   H     0.29326   0.24450   0.13586   0.00000  Uiso   1.00
H270   H     0.24508   0.19626   0.15469   0.00000  Uiso   1.00
H271   H     0.17292   0.12415   0.30200   0.00000  Uiso   1.00
H272   H     0.12839   0.07963   0.37774   0.00000  Uiso   1.00
H273   H     0.41088   0.37649   0.12400   0.00000  Uiso   1.00
H274   H     0.45938   0.37730   0.13057   0.00000  Uiso   1.00
H275   H     0.41135   0.28000   0.16691   0.00000  Uiso   1.00
H276   H     0.36273   0.27946   0.15734   0.00000  Uiso   1.00
H277   H     0.49415   0.36868   0.23168   0.00000  Uiso   1.00
H278   H     0.55041   0.39416   0.19248   0.00000  Uiso   1.00
H279   H     0.59504   0.39138   0.13442   0.00000  Uiso   1.00
H280   H     0.54008   0.29443   0.10731   0.00000  Uiso   1.00
H281   H     0.49508   0.29730   0.15968   0.00000  Uiso   1.00
H282   H     0.58913   0.62351   0.37596   0.00000  Uiso   1.00
H283   H     0.54063   0.62270   0.36941   0.00000  Uiso   1.00
H284   H     0.58865   0.72000   0.33316   0.00000  Uiso   1.00
H285   H     0.63727   0.72054   0.34271   0.00000  Uiso   1.00
H286   H     0.50585   0.63131   0.26836   0.00000  Uiso   1.00
H287   H     0.44958   0.60583   0.30758   0.00000  Uiso   1.00
H288   H     0.40496   0.60861   0.36563   0.00000  Uiso   1.00
H289   H     0.45991   0.70557   0.39267   0.00000  Uiso   1.00
H290   H     0.50492   0.70269   0.34032   0.00000  Uiso   1.00
H291   H     0.70674   0.75550   0.36414   0.00000  Uiso   1.00
H292   H     0.75492   0.80374   0.34532   0.00000  Uiso   1.00
H293   H     0.82708   0.87585   0.19800   0.00000  Uiso   1.00
H294   H     0.87161   0.92037   0.12227   0.00000  Uiso   1.00
H295   H     0.38173   0.66134   0.30262   0.00000  Uiso   1.00
H296   H     0.61827   0.33866   0.80262   0.00000  Uiso   1.00
C297   C     0.75527   0.02735   0.14035   0.00000  Uiso   1.00
C298   C     0.78250   0.02750   0.15053   0.00000  Uiso   1.00
C299   C     0.87485   0.02734   0.31803   0.00000  Uiso   1.00
C300   C     0.90005   0.02733   0.36063   0.00000  Uiso   1.00
C301   C     0.67213   0.02617   0.13841   0.00000  Uiso   1.00
C302   C     0.64463   0.05557   0.13470   0.00000  Uiso   1.00
C303   C     0.64414   0.08254   0.13957   0.00000  Uiso   1.00
C304   C     0.67136   0.11035   0.15309   0.00000  Uiso   1.00
C305   C     0.69888   0.11009   0.15786   0.00000  Uiso   1.00
C306   C     0.69911   0.08300   0.15304   0.00000  Uiso   1.00
C307   C     0.67199   0.05516   0.14193   0.00000  Uiso   1.00
C308   C     0.65186   0.14332   0.19080   0.00000  Uiso   1.00
N309   N     0.67273   0.13860   0.15329   0.00000  Uiso   1.00
C310   C     0.62781   0.17577   0.17402   0.00000  Uiso   1.00
C311   C     0.62933   0.20261   0.14140   0.00000  Uiso   1.00
C312   C     0.65718   0.22775   0.11245   0.00000  Uiso   1.00
C313   C     0.68370   0.22607   0.12580   0.00000  Uiso   1.00
C314   C     0.68209   0.19907   0.15531   0.00000  Uiso   1.00
C315   C     0.65395   0.17304   0.17591   0.00000  Uiso   1.00
C316   C     0.66346   0.30414   0.05537   0.00000  Uiso   1.00
C317   C     0.65880   0.25460   0.05607   0.00000  Uiso   1.00
C318   C     0.32786   0.97383   0.36159   0.00000  Uiso   1.00
C319   C     0.35536   0.94442   0.36529   0.00000  Uiso   1.00
C320   C     0.35586   0.91746   0.36042   0.00000  Uiso   1.00
C321   C     0.32864   0.88965   0.34694   0.00000  Uiso   1.00
C322   C     0.30112   0.88991   0.34218   0.00000  Uiso   1.00
C323   C     0.30089   0.91700   0.34699   0.00000  Uiso   1.00
C324   C     0.32801   0.94485   0.35808   0.00000  Uiso   1.00
C325   C     0.34814   0.85667   0.30923   0.00000  Uiso   1.00
N326   N     0.32727   0.86139   0.34674   0.00000  Uiso   1.00
C327   C     0.37219   0.82423   0.32602   0.00000  Uiso   1.00
C328   C     0.37067   0.79739   0.35862   0.00000  Uiso   1.00
C329   C     0.34282   0.77225   0.38756   0.00000  Uiso   1.00
C330   C     0.31631   0.77394   0.37420   0.00000  Uiso   1.00
C331   C     0.31792   0.80093   0.34469   0.00000  Uiso   1.00
C332   C     0.34606   0.82696   0.32412   0.00000  Uiso   1.00
C333   C     0.33654   0.69586   0.44463   0.00000  Uiso   1.00
C334   C     0.34120   0.74540   0.44393   0.00000  Uiso   1.00
C335   C     0.24473   0.97265   0.35965   0.00000  Uiso   1.00
C336   C     0.21750   0.97250   0.34948   0.00000  Uiso   1.00
C337   C     0.12515   0.97266   0.18198   0.00000  Uiso   1.00
C338   C     0.09995   0.97267   0.13937   0.00000  Uiso   1.00
N339   N     0.30091   0.97304   0.36270   0.00000  Uiso   1.00
C340   C     0.33892   0.72050   0.38853   0.00000  Uiso   1.00
N341   N     0.67213   0.97304   0.86270   0.00000  Uiso   1.00
C342   C     0.66108   0.27950   0.88853   0.00000  Uiso   1.00
H343   H     0.75550   0.04876   0.13586   0.00000  Uiso   1.00
H344   H     0.80374   0.04882   0.15469   0.00000  Uiso   1.00
H345   H     0.87585   0.04877   0.30200   0.00000  Uiso   1.00
H346   H     0.92037   0.04876   0.37774   0.00000  Uiso   1.00
H347   H     0.62351   0.03439   0.12400   0.00000  Uiso   1.00
H348   H     0.62270   0.08208   0.13057   0.00000  Uiso   1.00
H349   H     0.72000   0.13135   0.16691   0.00000  Uiso   1.00
H350   H     0.72054   0.08327   0.15734   0.00000  Uiso   1.00
H351   H     0.63132   0.12547   0.23168   0.00000  Uiso   1.00
H352   H     0.60584   0.15625   0.19248   0.00000  Uiso   1.00
H353   H     0.60862   0.20366   0.13442   0.00000  Uiso   1.00
H354   H     0.70557   0.24565   0.10731   0.00000  Uiso   1.00
H355   H     0.70270   0.19778   0.15968   0.00000  Uiso   1.00
H356   H     0.37649   0.96562   0.37596   0.00000  Uiso   1.00
H357   H     0.37730   0.91793   0.36941   0.00000  Uiso   1.00
H358   H     0.28000   0.86865   0.33316   0.00000  Uiso   1.00
H359   H     0.27946   0.91673   0.34271   0.00000  Uiso   1.00
H360   H     0.36869   0.87454   0.26836   0.00000  Uiso   1.00
H361   H     0.39417   0.84375   0.30758   0.00000  Uiso   1.00
H362   H     0.39139   0.79635   0.36563   0.00000  Uiso   1.00
H363   H     0.29443   0.75434   0.39267   0.00000  Uiso   1.00
H364   H     0.29731   0.80223   0.34032   0.00000  Uiso   1.00
H365   H     0.24450   0.95124   0.36414   0.00000  Uiso   1.00
H366   H     0.19626   0.95118   0.34532   0.00000  Uiso   1.00
H367   H     0.12415   0.95123   0.19800   0.00000  Uiso   1.00
H368   H     0.07963   0.95124   0.12227   0.00000  Uiso   1.00
H369   H     0.33866   0.72039   0.30262   0.00000  Uiso   1.00
H370   H     0.66134   0.27961   0.80262   0.00000  Uiso   1.00
C371   C     0.97265   0.72792   0.14035   0.00000  Uiso   1.00
C372   C     0.97250   0.75500   0.15053   0.00000  Uiso   1.00
C373   C     0.97266   0.84751   0.31803   0.00000  Uiso   1.00
C374   C     0.97267   0.87272   0.36063   0.00000  Uiso   1.00
C375   C     0.97383   0.64596   0.13841   0.00000  Uiso   1.00
C376   C     0.94443   0.58906   0.13470   0.00000  Uiso   1.00
C377   C     0.91746   0.56160   0.13957   0.00000  Uiso   1.00
C378   C     0.88965   0.56101   0.15309   0.00000  Uiso   1.00
C379   C     0.88991   0.58879   0.15786   0.00000  Uiso   1.00
C380   C     0.91700   0.61611   0.15304   0.00000  Uiso   1.00
C381   C     0.94484   0.61683   0.14193   0.00000  Uiso   1.00
C382   C     0.85668   0.50854   0.19080   0.00000  Uiso   1.00
N383   N     0.86140   0.53413   0.15329   0.00000  Uiso   1.00
C384   C     0.82423   0.45204   0.17402   0.00000  Uiso   1.00
C385   C     0.79739   0.42672   0.14140   0.00000  Uiso   1.00
C386   C     0.77225   0.42943   0.11245   0.00000  Uiso   1.00
C387   C     0.77393   0.45763   0.12580   0.00000  Uiso   1.00
C388   C     0.80093   0.48302   0.15531   0.00000  Uiso   1.00
C389   C     0.82696   0.48091   0.17591   0.00000  Uiso   1.00
C390   C     0.69586   0.35932   0.05537   0.00000  Uiso   1.00
C391   C     0.74540   0.40420   0.05607   0.00000  Uiso   1.00
C392   C     0.02617   0.35403   0.36159   0.00000  Uiso   1.00
C393   C     0.05558   0.41094   0.36529   0.00000  Uiso   1.00
C394   C     0.08254   0.43840   0.36042   0.00000  Uiso   1.00
C395   C     0.11035   0.43899   0.34694   0.00000  Uiso   1.00
C396   C     0.11009   0.41121   0.34218   0.00000  Uiso   1.00
C397   C     0.08300   0.38389   0.34699   0.00000  Uiso   1.00
C398   C     0.05515   0.38316   0.35808   0.00000  Uiso   1.00
C399   C     0.14333   0.49147   0.30923   0.00000  Uiso   1.00
N400   N     0.13861   0.46588   0.34674   0.00000  Uiso   1.00
C401   C     0.17577   0.54796   0.32602   0.00000  Uiso   1.00
C402   C     0.20261   0.57328   0.35862   0.00000  Uiso   1.00
C403   C     0.22775   0.57057   0.38756   0.00000  Uiso   1.00
C404   C     0.22606   0.54237   0.37420   0.00000  Uiso   1.00
C405   C     0.19907   0.51699   0.34469   0.00000  Uiso   1.00
C406   C     0.17304   0.51910   0.32412   0.00000  Uiso   1.00
C407   C     0.30414   0.64068   0.44463   0.00000  Uiso   1.00
C408   C     0.25460   0.59580   0.44393   0.00000  Uiso   1.00
C409   C     0.02735   0.27208   0.35965   0.00000  Uiso   1.00
C410   C     0.02750   0.24500   0.34948   0.00000  Uiso   1.00
C411   C     0.02734   0.15249   0.18198   0.00000  Uiso   1.00
C412   C     0.02733   0.12728   0.13937   0.00000  Uiso   1.00
N413   N     0.02696   0.32787   0.36270   0.00000  Uiso   1.00
C414   C     0.27950   0.61842   0.38853   0.00000  Uiso   1.00
N415   N     0.02696   0.69909   0.86270   0.00000  Uiso   1.00
C416   C     0.72050   0.38158   0.88853   0.00000  Uiso   1.00
H417   H     0.95124   0.70674   0.13586   0.00000  Uiso   1.00
H418   H     0.95118   0.75492   0.15469   0.00000  Uiso   1.00
H419   H     0.95123   0.82708   0.30200   0.00000  Uiso   1.00
H420   H     0.95124   0.87161   0.37774   0.00000  Uiso   1.00
H421   H     0.96561   0.58912   0.12400   0.00000  Uiso   1.00
H422   H     0.91792   0.54062   0.13057   0.00000  Uiso   1.00
H423   H     0.86865   0.58865   0.16691   0.00000  Uiso   1.00
H424   H     0.91673   0.63727   0.15734   0.00000  Uiso   1.00
H425   H     0.87453   0.50585   0.23168   0.00000  Uiso   1.00
H426   H     0.84375   0.44959   0.19248   0.00000  Uiso   1.00
H427   H     0.79634   0.40496   0.13442   0.00000  Uiso   1.00
H428   H     0.75435   0.45992   0.10731   0.00000  Uiso   1.00
H429   H     0.80222   0.50492   0.15968   0.00000  Uiso   1.00
H430   H     0.03438   0.41087   0.37596   0.00000  Uiso   1.00
H431   H     0.08207   0.45937   0.36941   0.00000  Uiso   1.00
H432   H     0.13135   0.41135   0.33316   0.00000  Uiso   1.00
H433   H     0.08327   0.36273   0.34271   0.00000  Uiso   1.00
H434   H     0.12546   0.49415   0.26836   0.00000  Uiso   1.00
H435   H     0.15625   0.55042   0.30758   0.00000  Uiso   1.00
H436   H     0.20365   0.59504   0.36563   0.00000  Uiso   1.00
H437   H     0.24566   0.54009   0.39267   0.00000  Uiso   1.00
H438   H     0.19777   0.49508   0.34032   0.00000  Uiso   1.00
H439   H     0.04876   0.29326   0.36414   0.00000  Uiso   1.00
H440   H     0.04882   0.24508   0.34532   0.00000  Uiso   1.00
H441   H     0.04877   0.17292   0.19800   0.00000  Uiso   1.00
H442   H     0.04876   0.12839   0.12227   0.00000  Uiso   1.00
H443   H     0.27961   0.61827   0.30262   0.00000  Uiso   1.00
H444   H     0.72039   0.38173   0.80262   0.00000  Uiso   1.00
C445   C     0.24473   0.27208   0.14035   0.00000  Uiso   1.00
C446   C     0.21750   0.24500   0.15053   0.00000  Uiso   1.00
C447   C     0.12515   0.15249   0.31803   0.00000  Uiso   1.00
C448   C     0.09995   0.12728   0.36063   0.00000  Uiso   1.00
C449   C     0.32787   0.35404   0.13841   0.00000  Uiso   1.00
C450   C     0.35537   0.41094   0.13470   0.00000  Uiso   1.00
C451   C     0.35586   0.43840   0.13957   0.00000  Uiso   1.00
C452   C     0.32864   0.43899   0.15309   0.00000  Uiso   1.00
C453   C     0.30112   0.41121   0.15786   0.00000  Uiso   1.00
C454   C     0.30089   0.38389   0.15304   0.00000  Uiso   1.00
C455   C     0.32801   0.38317   0.14193   0.00000  Uiso   1.00
C456   C     0.34814   0.49146   0.19080   0.00000  Uiso   1.00
N457   N     0.32727   0.46587   0.15329   0.00000  Uiso   1.00
C458   C     0.37219   0.54796   0.17402   0.00000  Uiso   1.00
C459   C     0.37067   0.57328   0.14140   0.00000  Uiso   1.00
C460   C     0.34282   0.57057   0.11245   0.00000  Uiso   1.00
C461   C     0.31630   0.54237   0.12580   0.00000  Uiso   1.00
C462   C     0.31791   0.51698   0.15531   0.00000  Uiso   1.00
C463   C     0.34605   0.51909   0.17591   0.00000  Uiso   1.00
C464   C     0.33654   0.64068   0.05537   0.00000  Uiso   1.00
C465   C     0.34120   0.59580   0.05607   0.00000  Uiso   1.00
C466   C     0.67214   0.64597   0.36159   0.00000  Uiso   1.00
C467   C     0.64464   0.58906   0.36529   0.00000  Uiso   1.00
C468   C     0.64414   0.56160   0.36042   0.00000  Uiso   1.00
C469   C     0.67136   0.56101   0.34694   0.00000  Uiso   1.00
C470   C     0.69888   0.58879   0.34218   0.00000  Uiso   1.00
C471   C     0.69911   0.61611   0.34699   0.00000  Uiso   1.00
C472   C     0.67199   0.61684   0.35808   0.00000  Uiso   1.00
C473   C     0.65186   0.50853   0.30923   0.00000  Uiso   1.00
N474   N     0.67273   0.53412   0.34674   0.00000  Uiso   1.00
C475   C     0.62781   0.45204   0.32602   0.00000  Uiso   1.00
C476   C     0.62933   0.42672   0.35862   0.00000  Uiso   1.00
C477   C     0.65718   0.42943   0.38756   0.00000  Uiso   1.00
C478   C     0.68369   0.45763   0.37420   0.00000  Uiso   1.00
C479   C     0.68208   0.48301   0.34469   0.00000  Uiso   1.00
C480   C     0.65394   0.48090   0.32412   0.00000  Uiso   1.00
C481   C     0.66346   0.35932   0.44463   0.00000  Uiso   1.00
C482   C     0.65880   0.40420   0.44393   0.00000  Uiso   1.00
C483   C     0.75527   0.72792   0.35965   0.00000  Uiso   1.00
C484   C     0.78250   0.75500   0.34948   0.00000  Uiso   1.00
C485   C     0.87485   0.84751   0.18198   0.00000  Uiso   1.00
C486   C     0.90005   0.87272   0.13937   0.00000  Uiso   1.00
N487   N     0.69909   0.67213   0.36270   0.00000  Uiso   1.00
C488   C     0.66108   0.38158   0.38853   0.00000  Uiso   1.00
N489   N     0.32787   0.30091   0.86270   0.00000  Uiso   1.00
C490   C     0.33892   0.61842   0.88853   0.00000  Uiso   1.00
H491   H     0.24450   0.29326   0.13586   0.00000  Uiso   1.00
H492   H     0.19626   0.24508   0.15469   0.00000  Uiso   1.00
H493   H     0.12415   0.17292   0.30200   0.00000  Uiso   1.00
H494   H     0.07963   0.12839   0.37774   0.00000  Uiso   1.00
H495   H     0.37649   0.41088   0.12400   0.00000  Uiso   1.00
H496   H     0.37730   0.45938   0.13057   0.00000  Uiso   1.00
H497   H     0.28000   0.41135   0.16691   0.00000  Uiso   1.00
H498   H     0.27946   0.36273   0.15734   0.00000  Uiso   1.00
H499   H     0.36868   0.49415   0.23168   0.00000  Uiso   1.00
H500   H     0.39416   0.55041   0.19248   0.00000  Uiso   1.00
H501   H     0.39138   0.59504   0.13442   0.00000  Uiso   1.00
H502   H     0.29443   0.54008   0.10731   0.00000  Uiso   1.00
H503   H     0.29730   0.49508   0.15968   0.00000  Uiso   1.00
H504   H     0.62351   0.58913   0.37596   0.00000  Uiso   1.00
H505   H     0.62270   0.54063   0.36941   0.00000  Uiso   1.00
H506   H     0.72000   0.58865   0.33316   0.00000  Uiso   1.00
H507   H     0.72054   0.63727   0.34271   0.00000  Uiso   1.00
H508   H     0.63131   0.50585   0.26836   0.00000  Uiso   1.00
H509   H     0.60583   0.44958   0.30758   0.00000  Uiso   1.00
H510   H     0.60861   0.40496   0.36563   0.00000  Uiso   1.00
H511   H     0.70557   0.45991   0.39267   0.00000  Uiso   1.00
H512   H     0.70269   0.50492   0.34032   0.00000  Uiso   1.00
H513   H     0.75550   0.70674   0.36414   0.00000  Uiso   1.00
H514   H     0.80374   0.75492   0.34532   0.00000  Uiso   1.00
H515   H     0.87585   0.82708   0.19800   0.00000  Uiso   1.00
H516   H     0.92037   0.87161   0.12227   0.00000  Uiso   1.00
H517   H     0.66134   0.38173   0.30262   0.00000  Uiso   1.00
H518   H     0.33866   0.61827   0.80262   0.00000  Uiso   1.00
C519   C     0.02735   0.75527   0.14035   0.00000  Uiso   1.00
C520   C     0.02750   0.78250   0.15053   0.00000  Uiso   1.00
C521   C     0.02734   0.87485   0.31803   0.00000  Uiso   1.00
C522   C     0.02733   0.90005   0.36063   0.00000  Uiso   1.00
C523   C     0.02617   0.67213   0.13841   0.00000  Uiso   1.00
C524   C     0.05557   0.64463   0.13470   0.00000  Uiso   1.00
C525   C     0.08254   0.64414   0.13957   0.00000  Uiso   1.00
C526   C     0.11035   0.67136   0.15309   0.00000  Uiso   1.00
C527   C     0.11009   0.69888   0.15786   0.00000  Uiso   1.00
C528   C     0.08300   0.69911   0.15304   0.00000  Uiso   1.00
C529   C     0.05516   0.67199   0.14193   0.00000  Uiso   1.00
C530   C     0.14332   0.65186   0.19080   0.00000  Uiso   1.00
N531   N     0.13860   0.67273   0.15329   0.00000  Uiso   1.00
C532   C     0.17577   0.62781   0.17402   0.00000  Uiso   1.00
C533   C     0.20261   0.62933   0.14140   0.00000  Uiso   1.00
C534   C     0.22775   0.65718   0.11245   0.00000  Uiso   1.00
C535   C     0.22607   0.68370   0.12580   0.00000  Uiso   1.00
C536   C     0.19907   0.68209   0.15531   0.00000  Uiso   1.00
C537   C     0.17304   0.65395   0.17591   0.00000  Uiso   1.00
C538   C     0.30414   0.66346   0.05537   0.00000  Uiso   1.00
C539   C     0.25460   0.65880   0.05607   0.00000  Uiso   1.00
C540   C     0.97383   0.32786   0.36159   0.00000  Uiso   1.00
C541   C     0.94442   0.35536   0.36529   0.00000  Uiso   1.00
C542   C     0.91746   0.35586   0.36042   0.00000  Uiso   1.00
C543   C     0.88965   0.32864   0.34694   0.00000  Uiso   1.00
C544   C     0.88991   0.30112   0.34218   0.00000  Uiso   1.00
C545   C     0.91700   0.30089   0.34699   0.00000  Uiso   1.00
C546   C     0.94485   0.32801   0.35808   0.00000  Uiso   1.00
C547   C     0.85667   0.34814   0.30923   0.00000  Uiso   1.00
N548   N     0.86139   0.32727   0.34674   0.00000  Uiso   1.00
C549   C     0.82423   0.37219   0.32602   0.00000  Uiso   1.00
C550   C     0.79739   0.37067   0.35862   0.00000  Uiso   1.00
C551   C     0.77225   0.34282   0.38756   0.00000  Uiso   1.00
C552   C     0.77394   0.31631   0.37420   0.00000  Uiso   1.00
C553   C     0.80093   0.31792   0.34469   0.00000  Uiso   1.00
C554   C     0.82696   0.34606   0.32412   0.00000  Uiso   1.00
C555   C     0.69586   0.33654   0.44463   0.00000  Uiso   1.00
C556   C     0.74540   0.34120   0.44393   0.00000  Uiso   1.00
C557   C     0.97265   0.24473   0.35965   0.00000  Uiso   1.00
C558   C     0.97250   0.21750   0.34948   0.00000  Uiso   1.00
C559   C     0.97266   0.12515   0.18198   0.00000  Uiso   1.00
C560   C     0.97267   0.09995   0.13937   0.00000  Uiso   1.00
N561   N     0.97304   0.30091   0.36270   0.00000  Uiso   1.00
C562   C     0.72050   0.33892   0.38853   0.00000  Uiso   1.00
N563   N     0.97304   0.67213   0.86270   0.00000  Uiso   1.00
C564   C     0.27950   0.66108   0.88853   0.00000  Uiso   1.00
H565   H     0.04876   0.75550   0.13586   0.00000  Uiso   1.00
H566   H     0.04882   0.80374   0.15469   0.00000  Uiso   1.00
H567   H     0.04877   0.87585   0.30200   0.00000  Uiso   1.00
H568   H     0.04876   0.92037   0.37774   0.00000  Uiso   1.00
H569   H     0.03439   0.62351   0.12400   0.00000  Uiso   1.00
H570   H     0.08208   0.62270   0.13057   0.00000  Uiso   1.00
H571   H     0.13135   0.72000   0.16691   0.00000  Uiso   1.00
H572   H     0.08327   0.72054   0.15734   0.00000  Uiso   1.00
H573   H     0.12547   0.63132   0.23168   0.00000  Uiso   1.00
H574   H     0.15625   0.60584   0.19248   0.00000  Uiso   1.00
H575   H     0.20366   0.60862   0.13442   0.00000  Uiso   1.00
H576   H     0.24565   0.70557   0.10731   0.00000  Uiso   1.00
H577   H     0.19778   0.70270   0.15968   0.00000  Uiso   1.00
H578   H     0.96562   0.37649   0.37596   0.00000  Uiso   1.00
H579   H     0.91793   0.37730   0.36941   0.00000  Uiso   1.00
H580   H     0.86865   0.28000   0.33316   0.00000  Uiso   1.00
H581   H     0.91673   0.27946   0.34271   0.00000  Uiso   1.00
H582   H     0.87454   0.36869   0.26836   0.00000  Uiso   1.00
H583   H     0.84375   0.39417   0.30758   0.00000  Uiso   1.00
H584   H     0.79635   0.39139   0.36563   0.00000  Uiso   1.00
H585   H     0.75434   0.29443   0.39267   0.00000  Uiso   1.00
H586   H     0.80223   0.29731   0.34032   0.00000  Uiso   1.00
H587   H     0.95124   0.24450   0.36414   0.00000  Uiso   1.00
H588   H     0.95118   0.19626   0.34532   0.00000  Uiso   1.00
H589   H     0.95123   0.12415   0.19800   0.00000  Uiso   1.00
H590   H     0.95124   0.07963   0.12227   0.00000  Uiso   1.00
H591   H     0.72039   0.33866   0.30262   0.00000  Uiso   1.00
H592   H     0.27961   0.66134   0.80262   0.00000  Uiso   1.00
C593   C     0.72792   0.97265   0.14035   0.00000  Uiso   1.00
C594   C     0.75500   0.97250   0.15053   0.00000  Uiso   1.00
C595   C     0.84751   0.97266   0.31803   0.00000  Uiso   1.00
C596   C     0.87272   0.97267   0.36063   0.00000  Uiso   1.00
C597   C     0.64596   0.97383   0.13841   0.00000  Uiso   1.00
C598   C     0.58906   0.94443   0.13470   0.00000  Uiso   1.00
C599   C     0.56160   0.91746   0.13957   0.00000  Uiso   1.00
C600   C     0.56101   0.88965   0.15309   0.00000  Uiso   1.00
C601   C     0.58879   0.88991   0.15786   0.00000  Uiso   1.00
C602   C     0.61611   0.91700   0.15304   0.00000  Uiso   1.00
C603   C     0.61683   0.94484   0.14193   0.00000  Uiso   1.00
C604   C     0.50854   0.85668   0.19080   0.00000  Uiso   1.00
N605   N     0.53413   0.86140   0.15329   0.00000  Uiso   1.00
C606   C     0.45204   0.82423   0.17402   0.00000  Uiso   1.00
C607   C     0.42672   0.79739   0.14140   0.00000  Uiso   1.00
C608   C     0.42943   0.77225   0.11245   0.00000  Uiso   1.00
C609   C     0.45763   0.77393   0.12580   0.00000  Uiso   1.00
C610   C     0.48302   0.80093   0.15531   0.00000  Uiso   1.00
C611   C     0.48091   0.82696   0.17591   0.00000  Uiso   1.00
C612   C     0.35932   0.69586   0.05537   0.00000  Uiso   1.00
C613   C     0.40420   0.74540   0.05607   0.00000  Uiso   1.00
C614   C     0.35403   0.02617   0.36159   0.00000  Uiso   1.00
C615   C     0.41094   0.05558   0.36529   0.00000  Uiso   1.00
C616   C     0.43840   0.08254   0.36042   0.00000  Uiso   1.00
C617   C     0.43899   0.11035   0.34694   0.00000  Uiso   1.00
C618   C     0.41121   0.11009   0.34218   0.00000  Uiso   1.00
C619   C     0.38389   0.08300   0.34699   0.00000  Uiso   1.00
C620   C     0.38316   0.05515   0.35808   0.00000  Uiso   1.00
C621   C     0.49147   0.14333   0.30923   0.00000  Uiso   1.00
N622   N     0.46588   0.13861   0.34674   0.00000  Uiso   1.00
C623   C     0.54796   0.17577   0.32602   0.00000  Uiso   1.00
C624   C     0.57328   0.20261   0.35862   0.00000  Uiso   1.00
C625   C     0.57057   0.22775   0.38756   0.00000  Uiso   1.00
C626   C     0.54237   0.22606   0.37420   0.00000  Uiso   1.00
C627   C     0.51699   0.19907   0.34469   0.00000  Uiso   1.00
C628   C     0.51910   0.17304   0.32412   0.00000  Uiso   1.00
C629   C     0.64068   0.30414   0.44463   0.00000  Uiso   1.00
C630   C     0.59580   0.25460   0.44393   0.00000  Uiso   1.00
C631   C     0.27208   0.02735   0.35965   0.00000  Uiso   1.00
C632   C     0.24500   0.02750   0.34948   0.00000  Uiso   1.00
C633   C     0.15249   0.02734   0.18198   0.00000  Uiso   1.00
C634   C     0.12728   0.02733   0.13937   0.00000  Uiso   1.00
N635   N     0.32787   0.02696   0.36270   0.00000  Uiso   1.00
C636   C     0.61842   0.27950   0.38853   0.00000  Uiso   1.00
N637   N     0.69909   0.02696   0.86270   0.00000  Uiso   1.00
C638   C     0.38158   0.72050   0.88853   0.00000  Uiso   1.00
H639   H     0.70674   0.95124   0.13586   0.00000  Uiso   1.00
H640   H     0.75492   0.95118   0.15469   0.00000  Uiso   1.00
H641   H     0.82708   0.95123   0.30200   0.00000  Uiso   1.00
H642   H     0.87161   0.95124   0.37774   0.00000  Uiso   1.00
H643   H     0.58912   0.96561   0.12400   0.00000  Uiso   1.00
H644   H     0.54062   0.91792   0.13057   0.00000  Uiso   1.00
H645   H     0.58865   0.86865   0.16691   0.00000  Uiso   1.00
H646   H     0.63727   0.91673   0.15734   0.00000  Uiso   1.00
H647   H     0.50585   0.87453   0.23168   0.00000  Uiso   1.00
H648   H     0.44959   0.84375   0.19248   0.00000  Uiso   1.00
H649   H     0.40496   0.79634   0.13442   0.00000  Uiso   1.00
H650   H     0.45992   0.75435   0.10731   0.00000  Uiso   1.00
H651   H     0.50492   0.80222   0.15968   0.00000  Uiso   1.00
H652   H     0.41087   0.03438   0.37596   0.00000  Uiso   1.00
H653   H     0.45937   0.08207   0.36941   0.00000  Uiso   1.00
H654   H     0.41135   0.13135   0.33316   0.00000  Uiso   1.00
H655   H     0.36273   0.08327   0.34271   0.00000  Uiso   1.00
H656   H     0.49415   0.12546   0.26836   0.00000  Uiso   1.00
H657   H     0.55042   0.15625   0.30758   0.00000  Uiso   1.00
H658   H     0.59504   0.20365   0.36563   0.00000  Uiso   1.00
H659   H     0.54009   0.24566   0.39267   0.00000  Uiso   1.00
H660   H     0.49508   0.19777   0.34032   0.00000  Uiso   1.00
H661   H     0.29326   0.04876   0.36414   0.00000  Uiso   1.00
H662   H     0.24508   0.04882   0.34532   0.00000  Uiso   1.00
H663   H     0.17292   0.04877   0.19800   0.00000  Uiso   1.00
H664   H     0.12839   0.04876   0.12227   0.00000  Uiso   1.00
H665   H     0.61827   0.27961   0.30262   0.00000  Uiso   1.00
H666   H     0.38173   0.72039   0.80262   0.00000  Uiso   1.00
C667   C     0.24473   0.27208   0.85965   0.00000  Uiso   1.00
C668   C     0.21750   0.24500   0.84947   0.00000  Uiso   1.00
C669   C     0.12515   0.15249   0.68197   0.00000  Uiso   1.00
C670   C     0.09995   0.12728   0.63937   0.00000  Uiso   1.00
C671   C     0.32787   0.35404   0.86159   0.00000  Uiso   1.00
C672   C     0.35537   0.41094   0.86530   0.00000  Uiso   1.00
C673   C     0.35586   0.43840   0.86043   0.00000  Uiso   1.00
C674   C     0.32864   0.43899   0.84691   0.00000  Uiso   1.00
C675   C     0.30112   0.41121   0.84214   0.00000  Uiso   1.00
C676   C     0.30089   0.38389   0.84696   0.00000  Uiso   1.00
C677   C     0.32801   0.38317   0.85807   0.00000  Uiso   1.00
C678   C     0.34814   0.49146   0.80920   0.00000  Uiso   1.00
N679   N     0.32727   0.46587   0.84671   0.00000  Uiso   1.00
C680   C     0.37219   0.54796   0.82598   0.00000  Uiso   1.00
C681   C     0.37067   0.57328   0.85860   0.00000  Uiso   1.00
C682   C     0.34282   0.57057   0.88755   0.00000  Uiso   1.00
C683   C     0.31630   0.54237   0.87420   0.00000  Uiso   1.00
C684   C     0.31791   0.51698   0.84469   0.00000  Uiso   1.00
C685   C     0.34605   0.51909   0.82409   0.00000  Uiso   1.00
C686   C     0.33654   0.64068   0.94463   0.00000  Uiso   1.00
C687   C     0.34120   0.59580   0.94393   0.00000  Uiso   1.00
C688   C     0.67214   0.64597   0.63841   0.00000  Uiso   1.00
C689   C     0.64464   0.58906   0.63471   0.00000  Uiso   1.00
C690   C     0.64414   0.56160   0.63958   0.00000  Uiso   1.00
C691   C     0.67136   0.56101   0.65306   0.00000  Uiso   1.00
C692   C     0.69888   0.58879   0.65782   0.00000  Uiso   1.00
C693   C     0.69911   0.61611   0.65301   0.00000  Uiso   1.00
C694   C     0.67199   0.61684   0.64192   0.00000  Uiso   1.00
C695   C     0.65186   0.50853   0.69077   0.00000  Uiso   1.00
N696   N     0.67273   0.53412   0.65326   0.00000  Uiso   1.00
C697   C     0.62781   0.45204   0.67398   0.00000  Uiso   1.00
C698   C     0.62933   0.42672   0.64138   0.00000  Uiso   1.00
C699   C     0.65718   0.42943   0.61244   0.00000  Uiso   1.00
C700   C     0.68369   0.45763   0.62580   0.00000  Uiso   1.00
C701   C     0.68208   0.48301   0.65531   0.00000  Uiso   1.00
C702   C     0.65394   0.48090   0.67588   0.00000  Uiso   1.00
C703   C     0.66346   0.35932   0.55537   0.00000  Uiso   1.00
C704   C     0.65880   0.40420   0.55607   0.00000  Uiso   1.00
C705   C     0.75527   0.72792   0.64035   0.00000  Uiso   1.00
C706   C     0.78250   0.75500   0.65052   0.00000  Uiso   1.00
C707   C     0.87485   0.84751   0.81802   0.00000  Uiso   1.00
C708   C     0.90005   0.87272   0.86063   0.00000  Uiso   1.00
N709   N     0.69909   0.67213   0.63730   0.00000  Uiso   1.00
C710   C     0.66108   0.38158   0.61147   0.00000  Uiso   1.00
N711   N     0.32787   0.30091   0.13730   0.00000  Uiso   1.00
C712   C     0.33892   0.61842   0.11147   0.00000  Uiso   1.00
H713   H     0.24450   0.29326   0.86414   0.00000  Uiso   1.00
H714   H     0.19626   0.24508   0.84531   0.00000  Uiso   1.00
H715   H     0.12415   0.17292   0.69800   0.00000  Uiso   1.00
H716   H     0.07963   0.12839   0.62226   0.00000  Uiso   1.00
H717   H     0.37649   0.41088   0.87600   0.00000  Uiso   1.00
H718   H     0.37730   0.45938   0.86943   0.00000  Uiso   1.00
H719   H     0.28000   0.41135   0.83309   0.00000  Uiso   1.00
H720   H     0.27946   0.36273   0.84266   0.00000  Uiso   1.00
H721   H     0.36868   0.49415   0.76832   0.00000  Uiso   1.00
H722   H     0.39416   0.55041   0.80752   0.00000  Uiso   1.00
H723   H     0.39138   0.59504   0.86558   0.00000  Uiso   1.00
H724   H     0.29443   0.54008   0.89269   0.00000  Uiso   1.00
H725   H     0.29730   0.49508   0.84032   0.00000  Uiso   1.00
H726   H     0.62351   0.58913   0.62404   0.00000  Uiso   1.00
H727   H     0.62270   0.54063   0.63059   0.00000  Uiso   1.00
H728   H     0.72000   0.58865   0.66684   0.00000  Uiso   1.00
H729   H     0.72054   0.63727   0.65729   0.00000  Uiso   1.00
H730   H     0.63131   0.50585   0.73164   0.00000  Uiso   1.00
H731   H     0.60583   0.44958   0.69242   0.00000  Uiso   1.00
H732   H     0.60861   0.40496   0.63437   0.00000  Uiso   1.00
H733   H     0.70557   0.45991   0.60733   0.00000  Uiso   1.00
H734   H     0.70269   0.50492   0.65968   0.00000  Uiso   1.00
H735   H     0.75550   0.70674   0.63586   0.00000  Uiso   1.00
H736   H     0.80374   0.75492   0.65468   0.00000  Uiso   1.00
H737   H     0.87585   0.82708   0.80200   0.00000  Uiso   1.00
H738   H     0.92037   0.87161   0.87773   0.00000  Uiso   1.00
H739   H     0.66134   0.38173   0.69738   0.00000  Uiso   1.00
H740   H     0.33866   0.61827   0.19738   0.00000  Uiso   1.00
C741   C     0.02735   0.75527   0.85965   0.00000  Uiso   1.00
C742   C     0.02750   0.78250   0.84947   0.00000  Uiso   1.00
C743   C     0.02734   0.87485   0.68197   0.00000  Uiso   1.00
C744   C     0.02733   0.90005   0.63937   0.00000  Uiso   1.00
C745   C     0.02617   0.67213   0.86159   0.00000  Uiso   1.00
C746   C     0.05557   0.64463   0.86530   0.00000  Uiso   1.00
C747   C     0.08254   0.64414   0.86043   0.00000  Uiso   1.00
C748   C     0.11035   0.67136   0.84691   0.00000  Uiso   1.00
C749   C     0.11009   0.69888   0.84214   0.00000  Uiso   1.00
C750   C     0.08300   0.69911   0.84696   0.00000  Uiso   1.00
C751   C     0.05516   0.67199   0.85807   0.00000  Uiso   1.00
C752   C     0.14332   0.65186   0.80920   0.00000  Uiso   1.00
N753   N     0.13860   0.67273   0.84671   0.00000  Uiso   1.00
C754   C     0.17577   0.62781   0.82598   0.00000  Uiso   1.00
C755   C     0.20261   0.62933   0.85860   0.00000  Uiso   1.00
C756   C     0.22775   0.65718   0.88755   0.00000  Uiso   1.00
C757   C     0.22607   0.68370   0.87420   0.00000  Uiso   1.00
C758   C     0.19907   0.68209   0.84469   0.00000  Uiso   1.00
C759   C     0.17304   0.65395   0.82409   0.00000  Uiso   1.00
C760   C     0.30414   0.66346   0.94463   0.00000  Uiso   1.00
C761   C     0.25460   0.65880   0.94393   0.00000  Uiso   1.00
C762   C     0.97383   0.32786   0.63841   0.00000  Uiso   1.00
C763   C     0.94442   0.35536   0.63471   0.00000  Uiso   1.00
C764   C     0.91746   0.35586   0.63958   0.00000  Uiso   1.00
C765   C     0.88965   0.32864   0.65306   0.00000  Uiso   1.00
C766   C     0.88991   0.30112   0.65782   0.00000  Uiso   1.00
C767   C     0.91700   0.30089   0.65301   0.00000  Uiso   1.00
C768   C     0.94485   0.32801   0.64192   0.00000  Uiso   1.00
C769   C     0.85667   0.34814   0.69077   0.00000  Uiso   1.00
N770   N     0.86139   0.32727   0.65326   0.00000  Uiso   1.00
C771   C     0.82423   0.37219   0.67398   0.00000  Uiso   1.00
C772   C     0.79739   0.37067   0.64138   0.00000  Uiso   1.00
C773   C     0.77225   0.34282   0.61244   0.00000  Uiso   1.00
C774   C     0.77394   0.31631   0.62580   0.00000  Uiso   1.00
C775   C     0.80093   0.31792   0.65531   0.00000  Uiso   1.00
C776   C     0.82696   0.34606   0.67588   0.00000  Uiso   1.00
C777   C     0.69586   0.33654   0.55537   0.00000  Uiso   1.00
C778   C     0.74540   0.34120   0.55607   0.00000  Uiso   1.00
C779   C     0.97265   0.24473   0.64035   0.00000  Uiso   1.00
C780   C     0.97250   0.21750   0.65052   0.00000  Uiso   1.00
C781   C     0.97266   0.12515   0.81802   0.00000  Uiso   1.00
C782   C     0.97267   0.09995   0.86063   0.00000  Uiso   1.00
N783   N     0.97304   0.30091   0.63730   0.00000  Uiso   1.00
C784   C     0.72050   0.33892   0.61147   0.00000  Uiso   1.00
N785   N     0.97304   0.67213   0.13730   0.00000  Uiso   1.00
C786   C     0.27950   0.66108   0.11147   0.00000  Uiso   1.00
H787   H     0.04876   0.75550   0.86414   0.00000  Uiso   1.00
H788   H     0.04882   0.80374   0.84531   0.00000  Uiso   1.00
H789   H     0.04877   0.87585   0.69800   0.00000  Uiso   1.00
H790   H     0.04876   0.92037   0.62226   0.00000  Uiso   1.00
H791   H     0.03439   0.62351   0.87600   0.00000  Uiso   1.00
H792   H     0.08208   0.62270   0.86943   0.00000  Uiso   1.00
H793   H     0.13135   0.72000   0.83309   0.00000  Uiso   1.00
H794   H     0.08327   0.72054   0.84266   0.00000  Uiso   1.00
H795   H     0.12547   0.63132   0.76832   0.00000  Uiso   1.00
H796   H     0.15625   0.60584   0.80752   0.00000  Uiso   1.00
H797   H     0.20366   0.60862   0.86558   0.00000  Uiso   1.00
H798   H     0.24565   0.70557   0.89269   0.00000  Uiso   1.00
H799   H     0.19778   0.70270   0.84032   0.00000  Uiso   1.00
H800   H     0.96562   0.37649   0.62404   0.00000  Uiso   1.00
H801   H     0.91793   0.37730   0.63059   0.00000  Uiso   1.00
H802   H     0.86865   0.28000   0.66684   0.00000  Uiso   1.00
H803   H     0.91673   0.27946   0.65729   0.00000  Uiso   1.00
H804   H     0.87454   0.36869   0.73164   0.00000  Uiso   1.00
H805   H     0.84375   0.39417   0.69242   0.00000  Uiso   1.00
H806   H     0.79635   0.39139   0.63437   0.00000  Uiso   1.00
H807   H     0.75434   0.29443   0.60733   0.00000  Uiso   1.00
H808   H     0.80223   0.29731   0.65968   0.00000  Uiso   1.00
H809   H     0.95124   0.24450   0.63586   0.00000  Uiso   1.00
H810   H     0.95118   0.19626   0.65468   0.00000  Uiso   1.00
H811   H     0.95123   0.12415   0.80200   0.00000  Uiso   1.00
H812   H     0.95124   0.07963   0.87773   0.00000  Uiso   1.00
H813   H     0.72039   0.33866   0.69738   0.00000  Uiso   1.00
H814   H     0.27961   0.66134   0.19738   0.00000  Uiso   1.00
C815   C     0.72792   0.97265   0.85965   0.00000  Uiso   1.00
C816   C     0.75500   0.97250   0.84947   0.00000  Uiso   1.00
C817   C     0.84751   0.97266   0.68197   0.00000  Uiso   1.00
C818   C     0.87272   0.97267   0.63937   0.00000  Uiso   1.00
C819   C     0.64596   0.97383   0.86159   0.00000  Uiso   1.00
C820   C     0.58906   0.94443   0.86530   0.00000  Uiso   1.00
C821   C     0.56160   0.91746   0.86043   0.00000  Uiso   1.00
C822   C     0.56101   0.88965   0.84691   0.00000  Uiso   1.00
C823   C     0.58879   0.88991   0.84214   0.00000  Uiso   1.00
C824   C     0.61611   0.91700   0.84696   0.00000  Uiso   1.00
C825   C     0.61683   0.94484   0.85807   0.00000  Uiso   1.00
C826   C     0.50854   0.85668   0.80920   0.00000  Uiso   1.00
N827   N     0.53413   0.86140   0.84671   0.00000  Uiso   1.00
C828   C     0.45204   0.82423   0.82598   0.00000  Uiso   1.00
C829   C     0.42672   0.79739   0.85860   0.00000  Uiso   1.00
C830   C     0.42943   0.77225   0.88755   0.00000  Uiso   1.00
C831   C     0.45763   0.77393   0.87420   0.00000  Uiso   1.00
C832   C     0.48302   0.80093   0.84469   0.00000  Uiso   1.00
C833   C     0.48091   0.82696   0.82409   0.00000  Uiso   1.00
C834   C     0.35932   0.69586   0.94463   0.00000  Uiso   1.00
C835   C     0.40420   0.74540   0.94393   0.00000  Uiso   1.00
C836   C     0.35403   0.02617   0.63841   0.00000  Uiso   1.00
C837   C     0.41094   0.05558   0.63471   0.00000  Uiso   1.00
C838   C     0.43840   0.08254   0.63958   0.00000  Uiso   1.00
C839   C     0.43899   0.11035   0.65306   0.00000  Uiso   1.00
C840   C     0.41121   0.11009   0.65782   0.00000  Uiso   1.00
C841   C     0.38389   0.08300   0.65301   0.00000  Uiso   1.00
C842   C     0.38316   0.05515   0.64192   0.00000  Uiso   1.00
C843   C     0.49147   0.14333   0.69077   0.00000  Uiso   1.00
N844   N     0.46588   0.13861   0.65326   0.00000  Uiso   1.00
C845   C     0.54796   0.17577   0.67398   0.00000  Uiso   1.00
C846   C     0.57328   0.20261   0.64138   0.00000  Uiso   1.00
C847   C     0.57057   0.22775   0.61244   0.00000  Uiso   1.00
C848   C     0.54237   0.22606   0.62580   0.00000  Uiso   1.00
C849   C     0.51699   0.19907   0.65531   0.00000  Uiso   1.00
C850   C     0.51910   0.17304   0.67588   0.00000  Uiso   1.00
C851   C     0.64068   0.30414   0.55537   0.00000  Uiso   1.00
C852   C     0.59580   0.25460   0.55607   0.00000  Uiso   1.00
C853   C     0.27208   0.02735   0.64035   0.00000  Uiso   1.00
C854   C     0.24500   0.02750   0.65052   0.00000  Uiso   1.00
C855   C     0.15249   0.02734   0.81802   0.00000  Uiso   1.00
C856   C     0.12728   0.02733   0.86063   0.00000  Uiso   1.00
N857   N     0.32787   0.02696   0.63730   0.00000  Uiso   1.00
C858   C     0.61842   0.27950   0.61147   0.00000  Uiso   1.00
N859   N     0.69909   0.02696   0.13730   0.00000  Uiso   1.00
C860   C     0.38158   0.72050   0.11147   0.00000  Uiso   1.00
H861   H     0.70674   0.95124   0.86414   0.00000  Uiso   1.00
H862   H     0.75492   0.95118   0.84531   0.00000  Uiso   1.00
H863   H     0.82708   0.95123   0.69800   0.00000  Uiso   1.00
H864   H     0.87161   0.95124   0.62226   0.00000  Uiso   1.00
H865   H     0.58912   0.96561   0.87600   0.00000  Uiso   1.00
H866   H     0.54062   0.91792   0.86943   0.00000  Uiso   1.00
H867   H     0.58865   0.86865   0.83309   0.00000  Uiso   1.00
H868   H     0.63727   0.91673   0.84266   0.00000  Uiso   1.00
H869   H     0.50585   0.87453   0.76832   0.00000  Uiso   1.00
H870   H     0.44959   0.84375   0.80752   0.00000  Uiso   1.00
H871   H     0.40496   0.79634   0.86558   0.00000  Uiso   1.00
H872   H     0.45992   0.75435   0.89269   0.00000  Uiso   1.00
H873   H     0.50492   0.80222   0.84032   0.00000  Uiso   1.00
H874   H     0.41087   0.03438   0.62404   0.00000  Uiso   1.00
H875   H     0.45937   0.08207   0.63059   0.00000  Uiso   1.00
H876   H     0.41135   0.13135   0.66684   0.00000  Uiso   1.00
H877   H     0.36273   0.08327   0.65729   0.00000  Uiso   1.00
H878   H     0.49415   0.12546   0.73164   0.00000  Uiso   1.00
H879   H     0.55042   0.15625   0.69242   0.00000  Uiso   1.00
H880   H     0.59504   0.20365   0.63437   0.00000  Uiso   1.00
H881   H     0.54009   0.24566   0.60733   0.00000  Uiso   1.00
H882   H     0.49508   0.19777   0.65968   0.00000  Uiso   1.00
H883   H     0.29326   0.04876   0.63586   0.00000  Uiso   1.00
H884   H     0.24508   0.04882   0.65468   0.00000  Uiso   1.00
H885   H     0.17292   0.04877   0.80200   0.00000  Uiso   1.00
H886   H     0.12839   0.04876   0.87773   0.00000  Uiso   1.00
H887   H     0.61827   0.27961   0.69738   0.00000  Uiso   1.00
H888   H     0.38173   0.72039   0.19738   0.00000  Uiso   1.00
C889   C     0.30168   0.30168   0.86381   0.00000  Uiso   1.00
C890   C     0.21750   0.21750   0.84029   0.00000  Uiso   1.00
C891   C     0.27261   0.27261   0.86227   0.00000  Uiso   1.00
C892   C     0.18057   0.18057   0.72994   0.00000  Uiso   1.00
N893   N     0.18988   0.18988   0.82391   0.00000  Uiso   1.00
C894   C     0.10097   0.10097   0.61445   0.00000  Uiso   1.00
C895   C     0.15198   0.15198   0.70197   0.00000  Uiso   1.00
H896   H     0.05127   0.05127   0.69728   0.00000  Uiso   1.00
C897   C     0.07517   0.07517   0.55596   0.00000  Uiso   1.00
C898   C     0.02774   0.02774   0.55538   0.00000  Uiso   1.00
C899   C     0.69832   0.69832   0.63619   0.00000  Uiso   1.00
C900   C     0.78250   0.78250   0.65970   0.00000  Uiso   1.00
C901   C     0.72739   0.72739   0.63773   0.00000  Uiso   1.00
C902   C     0.81943   0.81943   0.77005   0.00000  Uiso   1.00
N903   N     0.81012   0.81012   0.67608   0.00000  Uiso   1.00
C904   C     0.89903   0.89903   0.88554   0.00000  Uiso   1.00
C905   C     0.84802   0.84802   0.79802   0.00000  Uiso   1.00
C906   C     0.97226   0.97226   0.94462   0.00000  Uiso   1.00
C907   C     0.92483   0.92483   0.94404   0.00000  Uiso   1.00
N908   N     0.64518   0.64518   0.63844   0.00000  Uiso   1.00
N909   N     0.35482   0.35482   0.13843   0.00000  Uiso   1.00
H910   H     0.19379   0.19379   0.65968   0.00000  Uiso   1.00
C911   C     0.94872   0.94872   0.11135   0.00000  Uiso   1.00
C912   C     0.69832  -0.00000   0.86381   0.00000  Uiso   1.00
C913   C     0.78250   0.00000   0.84029   0.00000  Uiso   1.00
C914   C     0.72739   0.00000   0.86227   0.00000  Uiso   1.00
C915   C     0.81943  -0.00000   0.72994   0.00000  Uiso   1.00
N916   N     0.81012   0.00000   0.82391   0.00000  Uiso   1.00
C917   C     0.89903   0.00000   0.61445   0.00000  Uiso   1.00
C918   C     0.84802   0.00000   0.70197   0.00000  Uiso   1.00
H919   H     0.94873   0.00000   0.69728   0.00000  Uiso   1.00
C920   C     0.92483  -0.00000   0.55596   0.00000  Uiso   1.00
C921   C     0.97226   0.00000   0.55538   0.00000  Uiso   1.00
C922   C     0.30168   0.00000   0.63619   0.00000  Uiso   1.00
C923   C     0.21750   0.00000   0.65970   0.00000  Uiso   1.00
C924   C     0.27261   0.00000   0.63773   0.00000  Uiso   1.00
C925   C     0.18057   0.00000   0.77005   0.00000  Uiso   1.00
N926   N     0.18988   0.00000   0.67608   0.00000  Uiso   1.00
C927   C     0.10097   0.00000   0.88554   0.00000  Uiso   1.00
C928   C     0.15198   0.00000   0.79802   0.00000  Uiso   1.00
C929   C     0.02774   0.00000   0.94462   0.00000  Uiso   1.00
C930   C     0.07517   0.00000   0.94404   0.00000  Uiso   1.00
N931   N     0.35482   0.00000   0.63844   0.00000  Uiso   1.00
N932   N     0.64518  -0.00000   0.13843   0.00000  Uiso   1.00
H933   H     0.80621   0.00000   0.65968   0.00000  Uiso   1.00
C934   C     0.05128   0.00000   0.11135   0.00000  Uiso   1.00
C935   C     0.00000   0.69832   0.86381   0.00000  Uiso   1.00
C936   C     0.00000   0.78250   0.84029   0.00000  Uiso   1.00
C937   C     0.00000   0.72739   0.86227   0.00000  Uiso   1.00
C938   C     0.00000   0.81943   0.72994   0.00000  Uiso   1.00
N939   N     0.00000   0.81012   0.82391   0.00000  Uiso   1.00
C940   C     0.00000   0.89903   0.61445   0.00000  Uiso   1.00
C941   C     0.00000   0.84802   0.70197   0.00000  Uiso   1.00
H942   H     0.00000   0.94873   0.69728   0.00000  Uiso   1.00
C943   C     0.00000   0.92483   0.55596   0.00000  Uiso   1.00
C944   C     0.00000   0.97226   0.55538   0.00000  Uiso   1.00
C945   C     0.00000   0.30168   0.63619   0.00000  Uiso   1.00
C946   C     0.00000   0.21750   0.65970   0.00000  Uiso   1.00
C947   C     0.00000   0.27261   0.63773   0.00000  Uiso   1.00
C948   C     0.00000   0.18057   0.77005   0.00000  Uiso   1.00
N949   N     0.00000   0.18988   0.67608   0.00000  Uiso   1.00
C950   C     0.00000   0.10097   0.88554   0.00000  Uiso   1.00
C951   C     0.00000   0.15198   0.79802   0.00000  Uiso   1.00
C952   C     0.00000   0.02774   0.94462   0.00000  Uiso   1.00
C953   C     0.00000   0.07517   0.94404   0.00000  Uiso   1.00
N954   N     0.00000   0.35482   0.63844   0.00000  Uiso   1.00
N955   N     0.00000   0.64518   0.13843   0.00000  Uiso   1.00
H956   H     0.00000   0.80621   0.65968   0.00000  Uiso   1.00
C957   C     0.00000   0.05128   0.11135   0.00000  Uiso   1.00
C958   C     0.30168   0.30168   0.13619   0.00000  Uiso   1.00
C959   C     0.21750   0.21750   0.15971   0.00000  Uiso   1.00
C960   C     0.27261   0.27261   0.13773   0.00000  Uiso   1.00
C961   C     0.18057   0.18057   0.27006   0.00000  Uiso   1.00
N962   N     0.18988   0.18988   0.17609   0.00000  Uiso   1.00
C963   C     0.10097   0.10097   0.38555   0.00000  Uiso   1.00
C964   C     0.15198   0.15198   0.29803   0.00000  Uiso   1.00
H965   H     0.05127   0.05127   0.30272   0.00000  Uiso   1.00
C966   C     0.07517   0.07517   0.44404   0.00000  Uiso   1.00
C967   C     0.02774   0.02774   0.44462   0.00000  Uiso   1.00
C968   C     0.69832   0.69832   0.36381   0.00000  Uiso   1.00
C969   C     0.78250   0.78250   0.34030   0.00000  Uiso   1.00
C970   C     0.72739   0.72739   0.36227   0.00000  Uiso   1.00
C971   C     0.81943   0.81943   0.22995   0.00000  Uiso   1.00
N972   N     0.81012   0.81012   0.32392   0.00000  Uiso   1.00
C973   C     0.89903   0.89903   0.11446   0.00000  Uiso   1.00
C974   C     0.84802   0.84802   0.20198   0.00000  Uiso   1.00
C975   C     0.97226   0.97226   0.05538   0.00000  Uiso   1.00
C976   C     0.92483   0.92483   0.05596   0.00000  Uiso   1.00
N977   N     0.64518   0.64518   0.36156   0.00000  Uiso   1.00
N978   N     0.35482   0.35482   0.86157   0.00000  Uiso   1.00
H979   H     0.19379   0.19379   0.34032   0.00000  Uiso   1.00
C980   C     0.94872   0.94872   0.88865   0.00000  Uiso   1.00
C981   C     0.69832  -0.00000   0.13619   0.00000  Uiso   1.00
C982   C     0.78250   0.00000   0.15971   0.00000  Uiso   1.00
C983   C     0.72739   0.00000   0.13773   0.00000  Uiso   1.00
C984   C     0.81943  -0.00000   0.27006   0.00000  Uiso   1.00
N985   N     0.81012   0.00000   0.17609   0.00000  Uiso   1.00
C986   C     0.89903   0.00000   0.38555   0.00000  Uiso   1.00
C987   C     0.84802   0.00000   0.29803   0.00000  Uiso   1.00
H988   H     0.94873   0.00000   0.30272   0.00000  Uiso   1.00
C989   C     0.92483  -0.00000   0.44404   0.00000  Uiso   1.00
C990   C     0.97226   0.00000   0.44462   0.00000  Uiso   1.00
C991   C     0.30168   0.00000   0.36381   0.00000  Uiso   1.00
C992   C     0.21750   0.00000   0.34030   0.00000  Uiso   1.00
C993   C     0.27261   0.00000   0.36227   0.00000  Uiso   1.00
C994   C     0.18057   0.00000   0.22995   0.00000  Uiso   1.00
N995   N     0.18988   0.00000   0.32392   0.00000  Uiso   1.00
C996   C     0.10097   0.00000   0.11446   0.00000  Uiso   1.00
C997   C     0.15198   0.00000   0.20198   0.00000  Uiso   1.00
C998   C     0.02774   0.00000   0.05538   0.00000  Uiso   1.00
C999   C     0.07517   0.00000   0.05596   0.00000  Uiso   1.00
N1000  N     0.35482   0.00000   0.36156   0.00000  Uiso   1.00
N1001  N     0.64518  -0.00000   0.86157   0.00000  Uiso   1.00
H1002  H     0.80621   0.00000   0.34032   0.00000  Uiso   1.00
C1003  C     0.05128   0.00000   0.88865   0.00000  Uiso   1.00
C1004  C     0.00000   0.69832   0.13619   0.00000  Uiso   1.00
C1005  C     0.00000   0.78250   0.15971   0.00000  Uiso   1.00
C1006  C     0.00000   0.72739   0.13773   0.00000  Uiso   1.00
C1007  C     0.00000   0.81943   0.27006   0.00000  Uiso   1.00
N1008  N     0.00000   0.81012   0.17609   0.00000  Uiso   1.00
C1009  C     0.00000   0.89903   0.38555   0.00000  Uiso   1.00
C1010  C     0.00000   0.84802   0.29803   0.00000  Uiso   1.00
H1011  H     0.00000   0.94873   0.30272   0.00000  Uiso   1.00
C1012  C     0.00000   0.92483   0.44404   0.00000  Uiso   1.00
C1013  C     0.00000   0.97226   0.44462   0.00000  Uiso   1.00
C1014  C     0.00000   0.30168   0.36381   0.00000  Uiso   1.00
C1015  C     0.00000   0.21750   0.34030   0.00000  Uiso   1.00
C1016  C     0.00000   0.27261   0.36227   0.00000  Uiso   1.00
C1017  C     0.00000   0.18057   0.22995   0.00000  Uiso   1.00
N1018  N     0.00000   0.18988   0.32392   0.00000  Uiso   1.00
C1019  C     0.00000   0.10097   0.11446   0.00000  Uiso   1.00
C1020  C     0.00000   0.15198   0.20198   0.00000  Uiso   1.00
C1021  C     0.00000   0.02774   0.05538   0.00000  Uiso   1.00
C1022  C     0.00000   0.07517   0.05596   0.00000  Uiso   1.00
N1023  N     0.00000   0.35482   0.36156   0.00000  Uiso   1.00
N1024  N     0.00000   0.64518   0.86157   0.00000  Uiso   1.00
H1025  H     0.00000   0.80621   0.34032   0.00000  Uiso   1.00
C1026  C     0.00000   0.05128   0.88865   0.00000  Uiso   1.00
H1027  H     0.33333   0.66667   0.68772   0.00000  Uiso   1.00
C1028  C     0.33333   0.66667   0.60176   0.00000  Uiso   1.00
C1029  C     0.33333   0.66667   0.10176   0.00000  Uiso   1.00
H1030  H     0.33333   0.66667   0.31228   0.00000  Uiso   1.00
C1031  C     0.33333   0.66667   0.39824   0.00000  Uiso   1.00
C1032  C     0.33333   0.66667   0.89824   0.00000  Uiso   1.00
H1033  H     0.66667   0.33333   0.31228   0.00000  Uiso   1.00
C1034  C     0.66667   0.33333   0.39824   0.00000  Uiso   1.00
C1035  C     0.66667   0.33333   0.89824   0.00000  Uiso   1.00
H1036  H     0.66667   0.33333   0.68772   0.00000  Uiso   1.00
C1037  C     0.66667   0.33333   0.60176   0.00000  Uiso   1.00
C1038  C     0.66667   0.33333   0.10176   0.00000  Uiso   1.00
H1039  H     0.66667   0.33333   0.18772   0.00000  Uiso   1.00
H1040  H     0.66667   0.33333   0.81228   0.00000  Uiso   1.00
H1041  H     0.33333   0.66667   0.81228   0.00000  Uiso   1.00
H1042  H     0.33333   0.66667   0.18772   0.00000  Uiso   1.00
H1043  H     0.00000   0.00000   0.18774   0.00000  Uiso   1.00
H1044  H     0.00000   0.00000   0.68773   0.00000  Uiso   1.00
C1045  C     0.00000   0.00000   0.10178   0.00000  Uiso   1.00
C1046  C     0.00000   0.00000   0.60178   0.00000  Uiso   1.00
H1047  H     0.00000   0.00000   0.81226   0.00000  Uiso   1.00
H1048  H     0.00000   0.00000   0.31227   0.00000  Uiso   1.00
C1049  C     0.00000   0.00000   0.89822   0.00000  Uiso   1.00
C1050  C     0.00000   0.00000   0.39822   0.00000  Uiso   1.00
H1051  H     0.00000   0.05127   0.19729   0.00000  Uiso   1.00
H1052  H     0.00000   0.19379   0.84030   0.00000  Uiso   1.00
C1053  C     0.00000   0.94872   0.61135   0.00000  Uiso   1.00
H1054  H     0.94873   0.94873   0.19729   0.00000  Uiso   1.00
H1055  H     0.80621   0.80621   0.84030   0.00000  Uiso   1.00
C1056  C     0.05128   0.05128   0.61135   0.00000  Uiso   1.00
H1057  H     0.05127   0.00000   0.19729   0.00000  Uiso   1.00
H1058  H     0.19379   0.00000   0.84030   0.00000  Uiso   1.00
C1059  C     0.94872   0.00000   0.61135   0.00000  Uiso   1.00
H1060  H     0.00000   0.05127   0.80271   0.00000  Uiso   1.00
H1061  H     0.00000   0.19379   0.15970   0.00000  Uiso   1.00
C1062  C     0.00000   0.94872   0.38865   0.00000  Uiso   1.00
H1063  H     0.94873   0.94873   0.80271   0.00000  Uiso   1.00
H1064  H     0.80621   0.80621   0.15970   0.00000  Uiso   1.00
C1065  C     0.05128   0.05128   0.38865   0.00000  Uiso   1.00
H1066  H     0.05127   0.00000   0.80271   0.00000  Uiso   1.00
H1067  H     0.19379   0.00000   0.15970   0.00000  Uiso   1.00
C1068  C     0.94872   0.00000   0.38865   0.00000  Uiso   1.00
loop_
_geom_bond_atom_site_label_1
_geom_bond_atom_site_label_2
_geom_bond_distance
_geom_bond_site_symmetry_2
_ccdc_geom_bond_type
C1     C2      1.394   .     D
C1     H47     1.090   .     S
C1     C891    1.412   .     S
C2     H48     1.089   .     S
C2     C890    1.411   .     S
C3     C4      1.397   .     D
C3     H49     1.090   .     S
C3     C895    1.408   .     S
C4     H50     1.090   .     S
C4     C894    1.408   .     S
C5     C11     1.486   .     S
C5     N978    1.358   .     D
C5     N489    1.359   .     S
C6     C7      1.393   .     S
C6     C11     1.412   .     D
C6     H51     1.090   .     S
C7     C8      1.417   .     D
C7     H52     1.091   .     S
C8     C9      1.415   .     S
C8     N13     1.411   .     S
C9     C10     1.392   .     D
C9     H53     1.089   .     S
C10    C11     1.412   .     S
C10    H54     1.090   .     S
C12    N13     1.296   .     D
C12    C19     1.481   .     S
C12    H55     1.116   .     S
C14    C15     1.398   .     S
C14    C19     1.412   .     D
C14    H56     1.092   .     S
C15    C16     1.409   .     D
C15    H57     1.090   .     S
C16    C17     1.411   .     S
C16    C21     1.513   .     S
C17    C18     1.392   .     D
C17    H58     1.090   .     S
C18    C19     1.412   .     S
C18    H59     1.090   .     S
C20    C1035   1.535   .     S
C20    C268    1.398   .     S
C20    C242    1.406   1_556 D
C21    C268    1.407   .     D
C21    C243    1.424   1_556 S
C22    C28     1.486   .     S
C22    N43     1.358   .     D
C22    N908    1.359   .     S
C23    C24     1.393   .     S
C23    C28     1.412   .     D
C23    H60     1.090   .     S
C24    C25     1.417   .     D
C24    H61     1.090   .     S
C25    C26     1.415   .     S
C25    N30     1.411   .     S
C26    C27     1.392   .     D
C26    H62     1.089   .     S
C27    C28     1.413   .     S
C27    H63     1.090   .     S
C29    N30     1.296   .     D
C29    C36     1.481   .     S
C29    H64     1.117   .     S
C31    C32     1.398   .     D
C31    C36     1.411   .     S
C31    H65     1.092   .     S
C32    C33     1.409   .     S
C32    H66     1.090   .     S
C33    C34     1.411   .     D
C33    C38     1.513   .     S
C34    C35     1.392   .     S
C34    H67     1.091   .     S
C35    C36     1.412   .     D
C35    H68     1.090   .     S
C37    C44     1.398   .     S
C37    C1028   1.535   .     S
C37    C259    1.406   .     D
C38    C44     1.407   .     D
C38    C260    1.424   .     S
C39    C40     1.394   .     D
C39    H69     1.090   .     S
C39    C901    1.412   .     S
C40    H70     1.089   .     S
C40    C900    1.411   .     S
C41    C42     1.397   .     D
C41    H71     1.090   .     S
C41    C905    1.408   .     S
C42    H72     1.090   .     S
C42    C904    1.408   .     S
N43    C899    1.359   .     S
C44    H73     1.091   .     S
N45    C449    1.359   .     S
N45    C958    1.359   .     D
C46    H74     1.091   .     S
C46    C242    1.398   .     S
C46    C243    1.407   .     D
C75    C76     1.394   .     D
C75    H121    1.090   .     S
C75    C914    1.412   .     S
C76    H122    1.089   .     S
C76    C913    1.411   .     S
C77    C78     1.397   .     D
C77    H123    1.090   .     S
C77    C918    1.408   .     S
C78    H124    1.090   .     S
C78    C917    1.408   .     S
C79    C85     1.486   .     S
C79    N1001   1.358   .     S
C79    N637    1.359   .     D
C80    C81     1.393   .     S
C80    C85     1.412   .     D
C80    H125    1.090   .     S
C81    C82     1.417   .     D
C81    H126    1.091   .     S
C82    C83     1.415   .     S
C82    N87     1.411   .     S
C83    C84     1.392   .     D
C83    H127    1.089   .     S
C84    C85     1.412   .     S
C84    H128    1.090   .     S
C86    N87     1.296   .     D
C86    C93     1.481   .     S
C86    H129    1.116   .     S
C88    C89     1.398   .     S
C88    C93     1.412   .     D
C88    H130    1.092   .     S
C89    C90     1.409   .     D
C89    H131    1.090   .     S
C90    C91     1.411   .     S
C90    C95     1.513   .     S
C91    C92     1.392   .     D
C91    H132    1.090   .     S
C92    C93     1.412   .     S
C92    H133    1.090   .     S
C94    C1035   1.535   .     S
C94    C342    1.398   .     D
C94    C316    1.406   1_556 S
C95    C342    1.407   .     S
C95    C317    1.424   1_556 D
C96    C102    1.486   .     S
C96    N117    1.358   .     S
C96    N931    1.359   1_565 D
C97    C98     1.393   .     S
C97    C102    1.412   .     D
C97    H134    1.090   .     S
C98    C99     1.417   .     D
C98    H135    1.090   .     S
C99    C100    1.415   .     S
C99    N104    1.411   .     S
C100   C101    1.392   .     D
C100   H136    1.089   .     S
C101   C102    1.413   .     S
C101   H137    1.090   .     S
C103   N104    1.296   .     D
C103   C110    1.481   .     S
C103   H138    1.117   .     S
C105   C106    1.398   .     S
C105   C110    1.411   .     D
C105   H139    1.092   .     S
C106   C107    1.409   .     D
C106   H140    1.090   .     S
C107   C108    1.411   .     S
C107   C112    1.513   .     S
C108   C109    1.392   .     D
C108   H141    1.091   .     S
C109   C110    1.412   .     S
C109   H142    1.090   .     S
C111   C118    1.398   .     D
C111   C1028   1.535   .     S
C111   C333    1.406   .     S
C112   C118    1.407   .     S
C112   C334    1.424   .     D
C113   C114    1.394   .     S
C113   H143    1.090   .     S
C113   C924    1.412   1_565 D
C114   H144    1.089   .     S
C114   C923    1.411   1_565 D
C115   C116    1.397   .     S
C115   H145    1.090   .     S
C115   C928    1.408   1_565 D
C116   H146    1.090   .     S
C116   C927    1.408   1_565 D
N117   C922    1.359   1_565 D
C118   H147    1.091   .     S
N119   C597    1.359   .     S
N119   C981    1.359   1_565 D
C120   H148    1.091   .     S
C120   C316    1.398   .     D
C120   C317    1.407   .     S
C149   C150    1.394   .     S
C149   H195    1.090   .     S
C149   C937    1.412   1_655 D
C150   H196    1.089   .     S
C150   C936    1.411   1_655 D
C151   C152    1.397   .     S
C151   H197    1.090   .     S
C151   C941    1.408   1_655 D
C152   H198    1.090   .     S
C152   C940    1.408   1_655 D
C153   C159    1.486   .     S
C153   N563    1.359   .     S
C153   N1024   1.358   1_655 D
C154   C155    1.393   .     S
C154   C159    1.412   .     D
C154   H199    1.090   .     S
C155   C156    1.417   .     D
C155   H200    1.091   .     S
C156   C157    1.415   .     S
C156   N161    1.411   .     S
C157   C158    1.392   .     D
C157   H201    1.089   .     S
C158   C159    1.412   .     S
C158   H202    1.090   .     S
C160   N161    1.296   .     D
C160   C167    1.481   .     S
C160   H203    1.116   .     S
C162   C163    1.398   .     S
C162   C167    1.412   .     D
C162   H204    1.092   .     S
C163   C164    1.409   .     D
C163   H205    1.090   .     S
C164   C165    1.411   .     S
C164   C169    1.513   .     S
C165   C166    1.392   .     D
C165   H206    1.090   .     S
C166   C167    1.412   .     S
C166   H207    1.090   .     S
C168   C1035   1.535   .     S
C168   C416    1.398   .     S
C168   C390    1.406   1_556 D
C169   C416    1.407   .     D
C169   C391    1.424   1_556 S
C170   C176    1.486   .     S
C170   N191    1.358   .     D
C170   N954    1.359   .     S
C171   C172    1.393   .     S
C171   C176    1.412   .     D
C171   H208    1.090   .     S
C172   C173    1.417   .     D
C172   H209    1.090   .     S
C173   C174    1.415   .     S
C173   N178    1.411   .     S
C174   C175    1.392   .     D
C174   H210    1.089   .     S
C175   C176    1.413   .     S
C175   H211    1.090   .     S
C177   N178    1.296   .     D
C177   C184    1.481   .     S
C177   H212    1.117   .     S
C179   C180    1.398   .     D
C179   C184    1.411   .     S
C179   H213    1.092   .     S
C180   C181    1.409   .     S
C180   H214    1.090   .     S
C181   C182    1.411   .     D
C181   C186    1.513   .     S
C182   C183    1.392   .     S
C182   H215    1.091   .     S
C183   C184    1.412   .     D
C183   H216    1.090   .     S
C185   C192    1.398   .     S
C185   C1028   1.535   .     S
C185   C407    1.406   .     D
C186   C192    1.407   .     D
C186   C408    1.424   .     S
C187   C188    1.394   .     D
C187   H217    1.090   .     S
C187   C947    1.412   .     S
C188   H218    1.089   .     S
C188   C946    1.411   .     S
C189   C190    1.397   .     D
C189   H219    1.090   .     S
C189   C951    1.408   .     S
C190   H220    1.090   .     S
C190   C950    1.408   .     S
N191   C945    1.359   .     S
C192   H221    1.091   .     S
N193   C523    1.359   .     D
N193   C1004   1.359   .     S
C194   H222    1.091   .     S
C194   C390    1.398   .     S
C194   C391    1.407   .     D
C223   C224    1.394   .     D
C223   H269    1.090   .     S
C223   C960    1.412   .     S
C224   H270    1.089   .     S
C224   C959    1.411   .     S
C225   C226    1.397   .     D
C225   H271    1.090   .     S
C225   C964    1.408   .     S
C226   H272    1.090   .     S
C226   C963    1.408   .     S
C227   C233    1.486   .     S
C227   N909    1.358   .     S
C227   N711    1.359   .     D
C228   C229    1.393   .     S
C228   C233    1.412   .     D
C228   H273    1.090   .     S
C229   C230    1.417   .     D
C229   H274    1.091   .     S
C230   C231    1.415   .     S
C230   N235    1.411   .     S
C231   C232    1.392   .     D
C231   H275    1.089   .     S
C232   C233    1.412   .     S
C232   H276    1.090   .     S
C234   N235    1.296   .     D
C234   C241    1.481   .     S
C234   H277    1.116   .     S
C236   C237    1.398   .     S
C236   C241    1.412   .     D
C236   H278    1.092   .     S
C237   C238    1.409   .     D
C237   H279    1.090   .     S
C238   C239    1.411   .     S
C238   C243    1.513   .     S
C239   C240    1.392   .     D
C239   H280    1.090   .     S
C240   C241    1.412   .     S
C240   H281    1.090   .     S
C242   C1038   1.535   .     S
C242   C20     1.406   1_554 D
C243   C21     1.424   1_554 S
C244   C250    1.486   .     S
C244   N265    1.358   .     D
C244   N977    1.359   .     S
C245   C246    1.393   .     D
C245   C250    1.412   .     S
C245   H282    1.090   .     S
C246   C247    1.417   .     S
C246   H283    1.090   .     S
C247   C248    1.415   .     D
C247   N252    1.411   .     S
C248   C249    1.392   .     S
C248   H284    1.089   .     S
C249   C250    1.413   .     D
C249   H285    1.090   .     S
C251   N252    1.296   .     D
C251   C258    1.481   .     S
C251   H286    1.117   .     S
C253   C254    1.398   .     D
C253   C258    1.411   .     S
C253   H287    1.092   .     S
C254   C255    1.409   .     S
C254   H288    1.090   .     S
C255   C256    1.411   .     D
C255   C260    1.513   .     S
C256   C257    1.392   .     S
C256   H289    1.091   .     S
C257   C258    1.412   .     D
C257   H290    1.090   .     S
C259   C266    1.398   .     S
C259   C1031   1.535   .     S
C260   C266    1.407   .     D
C261   C262    1.394   .     S
C261   H291    1.090   .     S
C261   C970    1.412   .     D
C262   H292    1.089   .     S
C262   C969    1.411   .     D
C263   C264    1.397   .     S
C263   H293    1.090   .     S
C263   C974    1.408   .     D
C264   H294    1.090   .     S
C264   C973    1.408   .     D
N265   C968    1.359   .     S
C266   H295    1.091   .     S
N267   C671    1.359   .     D
N267   C889    1.359   .     S
C268   H296    1.091   .     S
C297   C298    1.394   .     D
C297   H343    1.090   .     S
C297   C983    1.412   .     S
C298   H344    1.089   .     S
C298   C982    1.411   .     S
C299   C300    1.397   .     D
C299   H345    1.090   .     S
C299   C987    1.408   .     S
C300   H346    1.090   .     S
C300   C986    1.408   .     S
C301   C307    1.486   .     S
C301   N932    1.358   .     S
C301   N859    1.359   .     D
C302   C303    1.393   .     D
C302   C307    1.412   .     S
C302   H347    1.090   .     S
C303   C304    1.417   .     S
C303   H348    1.091   .     S
C304   C305    1.415   .     D
C304   N309    1.411   .     S
C305   C306    1.392   .     S
C305   H349    1.089   .     S
C306   C307    1.412   .     D
C306   H350    1.090   .     S
C308   N309    1.296   .     D
C308   C315    1.481   .     S
C308   H351    1.116   .     S
C310   C311    1.398   .     D
C310   C315    1.412   .     S
C310   H352    1.092   .     S
C311   C312    1.409   .     S
C311   H353    1.090   .     S
C312   C313    1.411   .     D
C312   C317    1.513   .     S
C313   C314    1.392   .     S
C313   H354    1.090   .     S
C314   C315    1.412   .     D
C314   H355    1.090   .     S
C316   C1038   1.535   .     S
C316   C94     1.406   1_554 S
C317   C95     1.424   1_554 D
C318   C324    1.486   .     S
C318   N339    1.358   .     S
C318   N1000   1.359   1_565 D
C319   C320    1.393   .     S
C319   C324    1.412   .     D
C319   H356    1.090   .     S
C320   C321    1.417   .     D
C320   H357    1.090   .     S
C321   C322    1.415   .     S
C321   N326    1.411   .     S
C322   C323    1.392   .     D
C322   H358    1.089   .     S
C323   C324    1.413   .     S
C323   H359    1.090   .     S
C325   N326    1.296   .     D
C325   C332    1.481   .     S
C325   H360    1.117   .     S
C327   C328    1.398   .     S
C327   C332    1.411   .     D
C327   H361    1.092   .     S
C328   C329    1.409   .     D
C328   H362    1.090   .     S
C329   C330    1.411   .     S
C329   C334    1.513   .     S
C330   C331    1.392   .     D
C330   H363    1.091   .     S
C331   C332    1.412   .     S
C331   H364    1.090   .     S
C333   C340    1.398   .     D
C333   C1031   1.535   .     S
C334   C340    1.407   .     S
C335   C336    1.394   .     D
C335   H365    1.090   .     S
C335   C993    1.412   1_565 S
C336   H366    1.089   .     S
C336   C992    1.411   1_565 S
C337   C338    1.397   .     D
C337   H367    1.090   .     S
C337   C997    1.408   1_565 S
C338   H368    1.090   .     S
C338   C996    1.408   1_565 S
N339   C991    1.359   1_565 D
C340   H369    1.091   .     S
N341   C819    1.359   .     S
N341   C912    1.359   1_565 D
C342   H370    1.091   .     S
C371   C372    1.394   .     S
C371   H417    1.090   .     S
C371   C1006   1.412   1_655 D
C372   H418    1.089   .     S
C372   C1005   1.411   1_655 D
C373   C374    1.397   .     S
C373   H419    1.090   .     S
C373   C1010   1.408   1_655 D
C374   H420    1.090   .     S
C374   C1009   1.408   1_655 D
C375   C381    1.486   .     S
C375   N785    1.359   .     S
C375   N955    1.358   1_655 D
C376   C377    1.393   .     S
C376   C381    1.412   .     D
C376   H421    1.090   .     S
C377   C378    1.417   .     D
C377   H422    1.091   .     S
C378   C379    1.415   .     S
C378   N383    1.411   .     S
C379   C380    1.392   .     D
C379   H423    1.089   .     S
C380   C381    1.412   .     S
C380   H424    1.090   .     S
C382   N383    1.296   .     D
C382   C389    1.481   .     S
C382   H425    1.116   .     S
C384   C385    1.398   .     S
C384   C389    1.412   .     D
C384   H426    1.092   .     S
C385   C386    1.409   .     D
C385   H427    1.090   .     S
C386   C387    1.411   .     S
C386   C391    1.513   .     S
C387   C388    1.392   .     D
C387   H428    1.090   .     S
C388   C389    1.412   .     S
C388   H429    1.090   .     S
C390   C1038   1.535   .     S
C390   C168    1.406   1_554 D
C391   C169    1.424   1_554 S
C392   C398    1.486   .     S
C392   N413    1.358   .     D
C392   N1023   1.359   .     S
C393   C394    1.393   .     D
C393   C398    1.412   .     S
C393   H430    1.090   .     S
C394   C395    1.417   .     S
C394   H431    1.090   .     S
C395   C396    1.415   .     D
C395   N400    1.411   .     S
C396   C397    1.392   .     S
C396   H432    1.089   .     S
C397   C398    1.413   .     D
C397   H433    1.090   .     S
C399   N400    1.296   .     D
C399   C406    1.481   .     S
C399   H434    1.117   .     S
C401   C402    1.398   .     D
C401   C406    1.411   .     S
C401   H435    1.092   .     S
C402   C403    1.409   .     S
C402   H436    1.090   .     S
C403   C404    1.411   .     D
C403   C408    1.513   .     S
C404   C405    1.392   .     S
C404   H437    1.091   .     S
C405   C406    1.412   .     D
C405   H438    1.090   .     S
C407   C414    1.398   .     S
C407   C1031   1.535   .     S
C408   C414    1.407   .     D
C409   C410    1.394   .     S
C409   H439    1.090   .     S
C409   C1016   1.412   .     D
C410   H440    1.089   .     S
C410   C1015   1.411   .     D
C411   C412    1.397   .     S
C411   H441    1.090   .     S
C411   C1020   1.408   .     D
C412   H442    1.090   .     S
C412   C1019   1.408   .     D
N413   C1014   1.359   .     S
C414   H443    1.091   .     S
N415   C745    1.359   .     D
N415   C935    1.359   .     S
C416   H444    1.091   .     S
C445   C446    1.394   .     S
C445   H491    1.090   .     S
C445   C960    1.412   .     D
C446   H492    1.089   .     S
C446   C959    1.411   .     D
C447   C448    1.397   .     S
C447   H493    1.090   .     S
C447   C964    1.408   .     D
C448   H494    1.090   .     S
C448   C963    1.408   .     D
C449   C455    1.486   .     S
C449   N909    1.358   .     D
C450   C451    1.393   .     D
C450   C455    1.412   .     S
C450   H495    1.090   .     S
C451   C452    1.417   .     S
C451   H496    1.091   .     S
C452   C453    1.415   .     D
C452   N457    1.411   .     S
C453   C454    1.392   .     S
C453   H497    1.089   .     S
C454   C455    1.412   .     D
C454   H498    1.090   .     S
C456   N457    1.296   .     D
C456   C463    1.481   .     S
C456   H499    1.116   .     S
C458   C459    1.398   .     D
C458   C463    1.412   .     S
C458   H500    1.092   .     S
C459   C460    1.409   .     S
C459   H501    1.090   .     S
C460   C461    1.411   .     D
C460   C465    1.513   .     S
C461   C462    1.392   .     S
C461   H502    1.090   .     S
C462   C463    1.412   .     D
C462   H503    1.090   .     S
C464   C1029   1.535   .     S
C464   C712    1.398   .     D
C464   C686    1.406   1_554 S
C465   C712    1.407   .     S
C465   C687    1.424   1_554 D
C466   C472    1.486   .     S
C466   N487    1.358   .     S
C466   N977    1.359   .     D
C467   C468    1.393   .     S
C467   C472    1.412   .     D
C467   H504    1.090   .     S
C468   C469    1.417   .     D
C468   H505    1.090   .     S
C469   C470    1.415   .     S
C469   N474    1.411   .     S
C470   C471    1.392   .     D
C470   H506    1.089   .     S
C471   C472    1.413   .     S
C471   H507    1.090   .     S
C473   N474    1.296   .     D
C473   C480    1.481   .     S
C473   H508    1.117   .     S
C475   C476    1.398   .     S
C475   C480    1.411   .     D
C475   H509    1.092   .     S
C476   C477    1.409   .     D
C476   H510    1.090   .     S
C477   C478    1.411   .     S
C477   C482    1.513   .     S
C478   C479    1.392   .     D
C478   H511    1.091   .     S
C479   C480    1.412   .     S
C479   H512    1.090   .     S
C481   C488    1.398   .     S
C481   C1034   1.535   .     S
C481   C703    1.406   .     D
C482   C488    1.407   .     D
C482   C704    1.424   .     S
C483   C484    1.394   .     D
C483   H513    1.090   .     S
C483   C970    1.412   .     S
C484   H514    1.089   .     S
C484   C969    1.411   .     S
C485   C486    1.397   .     D
C485   H515    1.090   .     S
C485   C974    1.408   .     S
C486   H516    1.090   .     S
C486   C973    1.408   .     S
N487   C968    1.359   .     D
C488   H517    1.091   .     S
N489   C889    1.359   .     D
C490   H518    1.091   .     S
C490   C686    1.398   .     D
C490   C687    1.407   .     S
C519   C520    1.394   .     D
C519   H565    1.090   .     S
C519   C1006   1.412   .     S
C520   H566    1.089   .     S
C520   C1005   1.411   .     S
C521   C522    1.397   .     D
C521   H567    1.090   .     S
C521   C1010   1.408   .     S
C522   H568    1.090   .     S
C522   C1009   1.408   .     S
C523   C529    1.486   .     S
C523   N955    1.358   .     S
C524   C525    1.393   .     D
C524   C529    1.412   .     S
C524   H569    1.090   .     S
C525   C526    1.417   .     S
C525   H570    1.091   .     S
C526   C527    1.415   .     D
C526   N531    1.411   .     S
C527   C528    1.392   .     S
C527   H571    1.089   .     S
C528   C529    1.412   .     D
C528   H572    1.090   .     S
C530   N531    1.296   .     D
C530   C537    1.481   .     S
C530   H573    1.116   .     S
C532   C533    1.398   .     D
C532   C537    1.412   .     S
C532   H574    1.092   .     S
C533   C534    1.409   .     S
C533   H575    1.090   .     S
C534   C535    1.411   .     D
C534   C539    1.513   .     S
C535   C536    1.392   .     S
C535   H576    1.090   .     S
C536   C537    1.412   .     D
C536   H577    1.090   .     S
C538   C1029   1.535   .     S
C538   C786    1.398   .     D
C538   C760    1.406   1_554 S
C539   C786    1.407   .     S
C539   C761    1.424   1_554 D
C540   C546    1.486   .     S
C540   N561    1.358   .     S
C540   N1023   1.359   1_655 D
C541   C542    1.393   .     S
C541   C546    1.412   .     D
C541   H578    1.090   .     S
C542   C543    1.417   .     D
C542   H579    1.090   .     S
C543   C544    1.415   .     S
C543   N548    1.411   .     S
C544   C545    1.392   .     D
C544   H580    1.089   .     S
C545   C546    1.413   .     S
C545   H581    1.090   .     S
C547   N548    1.296   .     D
C547   C554    1.481   .     S
C547   H582    1.117   .     S
C549   C550    1.398   .     S
C549   C554    1.411   .     D
C549   H583    1.092   .     S
C550   C551    1.409   .     D
C550   H584    1.090   .     S
C551   C552    1.411   .     S
C551   C556    1.513   .     S
C552   C553    1.392   .     D
C552   H585    1.091   .     S
C553   C554    1.412   .     S
C553   H586    1.090   .     S
C555   C562    1.398   .     S
C555   C1034   1.535   .     S
C555   C777    1.406   .     D
C556   C562    1.407   .     D
C556   C778    1.424   .     S
C557   C558    1.394   .     D
C557   H587    1.090   .     S
C557   C1016   1.412   1_655 S
C558   H588    1.089   .     S
C558   C1015   1.411   1_655 S
C559   C560    1.397   .     D
C559   H589    1.090   .     S
C559   C1020   1.408   1_655 S
C560   H590    1.090   .     S
C560   C1019   1.408   1_655 S
N561   C1014   1.359   1_655 D
C562   H591    1.091   .     S
N563   C935    1.359   1_655 D
C564   H592    1.091   .     S
C564   C760    1.398   .     D
C564   C761    1.407   .     S
C593   C594    1.394   .     S
C593   H639    1.090   .     S
C593   C983    1.412   1_565 D
C594   H640    1.089   .     S
C594   C982    1.411   1_565 D
C595   C596    1.397   .     S
C595   H641    1.090   .     S
C595   C987    1.408   1_565 D
C596   H642    1.090   .     S
C596   C986    1.408   1_565 D
C597   C603    1.486   .     S
C597   N932    1.358   1_565 D
C598   C599    1.393   .     S
C598   C603    1.412   .     D
C598   H643    1.090   .     S
C599   C600    1.417   .     D
C599   H644    1.091   .     S
C600   C601    1.415   .     S
C600   N605    1.411   .     S
C601   C602    1.392   .     D
C601   H645    1.089   .     S
C602   C603    1.412   .     S
C602   H646    1.090   .     S
C604   N605    1.296   .     D
C604   C611    1.481   .     S
C604   H647    1.116   .     S
C606   C607    1.398   .     S
C606   C611    1.412   .     D
C606   H648    1.092   .     S
C607   C608    1.409   .     D
C607   H649    1.090   .     S
C608   C609    1.411   .     S
C608   C613    1.513   .     S
C609   C610    1.392   .     D
C609   H650    1.090   .     S
C610   C611    1.412   .     S
C610   H651    1.090   .     S
C612   C1029   1.535   .     S
C612   C860    1.398   .     S
C612   C834    1.406   1_554 D
C613   C860    1.407   .     D
C613   C835    1.424   1_554 S
C614   C620    1.486   .     S
C614   N635    1.358   .     D
C614   N1000   1.359   .     S
C615   C616    1.393   .     D
C615   C620    1.412   .     S
C615   H652    1.090   .     S
C616   C617    1.417   .     S
C616   H653    1.090   .     S
C617   C618    1.415   .     D
C617   N622    1.411   .     S
C618   C619    1.392   .     S
C618   H654    1.089   .     S
C619   C620    1.413   .     D
C619   H655    1.090   .     S
C621   N622    1.296   .     D
C621   C628    1.481   .     S
C621   H656    1.117   .     S
C623   C624    1.398   .     D
C623   C628    1.411   .     S
C623   H657    1.092   .     S
C624   C625    1.409   .     S
C624   H658    1.090   .     S
C625   C626    1.411   .     D
C625   C630    1.513   .     S
C626   C627    1.392   .     S
C626   H659    1.091   .     S
C627   C628    1.412   .     D
C627   H660    1.090   .     S
C629   C636    1.398   .     D
C629   C1034   1.535   .     S
C629   C851    1.406   .     S
C630   C636    1.407   .     S
C630   C852    1.424   .     D
C631   C632    1.394   .     S
C631   H661    1.090   .     S
C631   C993    1.412   .     D
C632   H662    1.089   .     S
C632   C992    1.411   .     D
C633   C634    1.397   .     S
C633   H663    1.090   .     S
C633   C997    1.408   .     D
C634   H664    1.090   .     S
C634   C996    1.408   .     D
N635   C991    1.359   .     S
C636   H665    1.091   .     S
N637   C912    1.359   .     S
C638   H666    1.091   .     S
C638   C834    1.398   .     S
C638   C835    1.407   .     D
C667   C668    1.394   .     S
C667   H713    1.090   .     S
C667   C891    1.412   .     D
C668   H714    1.089   .     S
C668   C890    1.411   .     D
C669   C670    1.397   .     S
C669   H715    1.090   .     S
C669   C895    1.408   .     D
C670   H716    1.090   .     S
C670   C894    1.408   .     D
C671   C677    1.486   .     S
C671   N978    1.358   .     S
C672   C673    1.393   .     S
C672   C677    1.412   .     D
C672   H717    1.090   .     S
C673   C674    1.417   .     D
C673   H718    1.091   .     S
C674   C675    1.415   .     S
C674   N679    1.411   .     S
C675   C676    1.392   .     D
C675   H719    1.089   .     S
C676   C677    1.412   .     S
C676   H720    1.090   .     S
C678   N679    1.296   .     D
C678   C685    1.481   .     S
C678   H721    1.116   .     S
C680   C681    1.398   .     S
C680   C685    1.412   .     D
C680   H722    1.092   .     S
C681   C682    1.409   .     D
C681   H723    1.090   .     S
C682   C683    1.411   .     S
C682   C687    1.513   .     S
C683   C684    1.392   .     D
C683   H724    1.090   .     S
C684   C685    1.412   .     S
C684   H725    1.090   .     S
C686   C1032   1.535   .     S
C686   C464    1.406   1_556 S
C687   C465    1.424   1_556 D
C688   C694    1.486   .     S
C688   N709    1.358   .     S
C688   N908    1.359   .     D
C689   C690    1.393   .     S
C689   C694    1.412   .     D
C689   H726    1.090   .     S
C690   C691    1.417   .     D
C690   H727    1.090   .     S
C691   C692    1.415   .     S
C691   N696    1.411   .     S
C692   C693    1.392   .     D
C692   H728    1.089   .     S
C693   C694    1.413   .     S
C693   H729    1.090   .     S
C695   N696    1.296   .     D
C695   C702    1.481   .     S
C695   H730    1.117   .     S
C697   C698    1.398   .     D
C697   C702    1.411   .     S
C697   H731    1.092   .     S
C698   C699    1.409   .     S
C698   H732    1.090   .     S
C699   C700    1.411   .     D
C699   C704    1.513   .     S
C700   C701    1.392   .     S
C700   H733    1.091   .     S
C701   C702    1.412   .     D
C701   H734    1.090   .     S
C703   C710    1.398   .     S
C703   C1037   1.535   .     S
C704   C710    1.407   .     D
C705   C706    1.394   .     S
C705   H735    1.090   .     S
C705   C901    1.412   .     D
C706   H736    1.089   .     S
C706   C900    1.411   .     D
C707   C708    1.397   .     S
C707   H737    1.090   .     S
C707   C905    1.408   .     D
C708   H738    1.090   .     S
C708   C904    1.408   .     D
N709   C899    1.359   .     D
C710   H739    1.091   .     S
N711   C958    1.359   .     S
C712   H740    1.091   .     S
C741   C742    1.394   .     D
C741   H787    1.090   .     S
C741   C937    1.412   .     S
C742   H788    1.089   .     S
C742   C936    1.411   .     S
C743   C744    1.397   .     D
C743   H789    1.090   .     S
C743   C941    1.408   .     S
C744   H790    1.090   .     S
C744   C940    1.408   .     S
C745   C751    1.486   .     S
C745   N1024   1.358   .     S
C746   C747    1.393   .     S
C746   C751    1.412   .     D
C746   H791    1.090   .     S
C747   C748    1.417   .     D
C747   H792    1.091   .     S
C748   C749    1.415   .     S
C748   N753    1.411   .     S
C749   C750    1.392   .     D
C749   H793    1.089   .     S
C750   C751    1.412   .     S
C750   H794    1.090   .     S
C752   N753    1.296   .     D
C752   C759    1.481   .     S
C752   H795    1.116   .     S
C754   C755    1.398   .     S
C754   C759    1.412   .     D
C754   H796    1.092   .     S
C755   C756    1.409   .     D
C755   H797    1.090   .     S
C756   C757    1.411   .     S
C756   C761    1.513   .     S
C757   C758    1.392   .     D
C757   H798    1.090   .     S
C758   C759    1.412   .     S
C758   H799    1.090   .     S
C760   C1032   1.535   .     S
C760   C538    1.406   1_556 S
C761   C539    1.424   1_556 D
C762   C768    1.486   .     S
C762   N783    1.358   .     S
C762   N954    1.359   1_655 D
C763   C764    1.393   .     S
C763   C768    1.412   .     D
C763   H800    1.090   .     S
C764   C765    1.417   .     D
C764   H801    1.090   .     S
C765   C766    1.415   .     S
C765   N770    1.411   .     S
C766   C767    1.392   .     D
C766   H802    1.089   .     S
C767   C768    1.413   .     S
C767   H803    1.090   .     S
C769   N770    1.296   .     D
C769   C776    1.481   .     S
C769   H804    1.117   .     S
C771   C772    1.398   .     D
C771   C776    1.411   .     S
C771   H805    1.092   .     S
C772   C773    1.409   .     S
C772   H806    1.090   .     S
C773   C774    1.411   .     D
C773   C778    1.513   .     S
C774   C775    1.392   .     S
C774   H807    1.091   .     S
C775   C776    1.412   .     D
C775   H808    1.090   .     S
C777   C784    1.398   .     S
C777   C1037   1.535   .     S
C778   C784    1.407   .     D
C779   C780    1.394   .     S
C779   H809    1.090   .     S
C779   C947    1.412   1_655 D
C780   H810    1.089   .     S
C780   C946    1.411   1_655 D
C781   C782    1.397   .     S
C781   H811    1.090   .     S
C781   C951    1.408   1_655 D
C782   H812    1.090   .     S
C782   C950    1.408   1_655 D
N783   C945    1.359   1_655 D
C784   H813    1.091   .     S
N785   C1004   1.359   1_655 D
C786   H814    1.091   .     S
C815   C816    1.394   .     S
C815   H861    1.090   .     S
C815   C914    1.412   1_565 D
C816   H862    1.089   .     S
C816   C913    1.411   1_565 D
C817   C818    1.397   .     S
C817   H863    1.090   .     S
C817   C918    1.408   1_565 D
C818   H864    1.090   .     S
C818   C917    1.408   1_565 D
C819   C825    1.486   .     S
C819   N1001   1.358   1_565 D
C820   C821    1.393   .     S
C820   C825    1.412   .     D
C820   H865    1.090   .     S
C821   C822    1.417   .     D
C821   H866    1.091   .     S
C822   C823    1.415   .     S
C822   N827    1.411   .     S
C823   C824    1.392   .     D
C823   H867    1.089   .     S
C824   C825    1.412   .     S
C824   H868    1.090   .     S
C826   N827    1.296   .     D
C826   C833    1.481   .     S
C826   H869    1.116   .     S
C828   C829    1.398   .     S
C828   C833    1.412   .     D
C828   H870    1.092   .     S
C829   C830    1.409   .     D
C829   H871    1.090   .     S
C830   C831    1.411   .     S
C830   C835    1.513   .     S
C831   C832    1.392   .     D
C831   H872    1.090   .     S
C832   C833    1.412   .     S
C832   H873    1.090   .     S
C834   C1032   1.535   .     S
C834   C612    1.406   1_556 D
C835   C613    1.424   1_556 S
C836   C842    1.486   .     S
C836   N857    1.358   .     D
C836   N931    1.359   .     S
C837   C838    1.393   .     S
C837   C842    1.412   .     D
C837   H874    1.090   .     S
C838   C839    1.417   .     D
C838   H875    1.090   .     S
C839   C840    1.415   .     S
C839   N844    1.411   .     S
C840   C841    1.392   .     D
C840   H876    1.089   .     S
C841   C842    1.413   .     S
C841   H877    1.090   .     S
C843   N844    1.296   .     D
C843   C850    1.481   .     S
C843   H878    1.117   .     S
C845   C846    1.398   .     D
C845   C850    1.411   .     S
C845   H879    1.092   .     S
C846   C847    1.409   .     S
C846   H880    1.090   .     S
C847   C848    1.411   .     D
C847   C852    1.513   .     S
C848   C849    1.392   .     S
C848   H881    1.091   .     S
C849   C850    1.412   .     D
C849   H882    1.090   .     S
C851   C858    1.398   .     D
C851   C1037   1.535   .     S
C852   C858    1.407   .     S
C853   C854    1.394   .     D
C853   H883    1.090   .     S
C853   C924    1.412   .     S
C854   H884    1.089   .     S
C854   C923    1.411   .     S
C855   C856    1.397   .     D
C855   H885    1.090   .     S
C855   C928    1.408   .     S
C856   H886    1.090   .     S
C856   C927    1.408   .     S
N857   C922    1.359   .     S
C858   H887    1.091   .     S
N859   C981    1.359   .     S
C860   H888    1.091   .     S
C889   C891    1.486   .     S
C890   N893    1.427   .     S
C892   N893    1.284   .     D
C892   C895    1.504   .     S
C892   H910    1.119   .     S
C894   C897    1.514   .     S
H896   C1056   1.091   .     S
C897   C966    1.421   .     S
C897   C1056   1.409   .     D
C898   C1046   1.536   .     S
C898   C967    1.406   .     D
C898   C1056   1.398   .     S
C899   C901    1.486   .     S
C900   N903    1.427   .     S
C902   N903    1.284   .     D
C902   C905    1.504   .     S
C902   H1055   1.119   .     S
C904   C907    1.514   .     S
C906   C980    1.398   .     S
C906   C1049   1.536   1_665 S
C906   C975    1.406   1_556 D
C907   C980    1.409   .     D
C907   C976    1.421   1_556 S
C911   C975    1.398   .     S
C911   C976    1.409   .     D
C911   H1054   1.091   .     S
C912   C914    1.486   .     S
C912   N341    1.359   1_545 D
C913   N916    1.427   .     S
C913   C816    1.411   1_545 D
C914   C815    1.412   1_545 D
C915   N916    1.284   .     D
C915   C918    1.504   .     S
C915   H933    1.119   .     S
C917   C920    1.514   .     S
C917   C818    1.408   1_545 D
C918   C817    1.408   1_545 D
H919   C1059   1.091   .     S
C920   C989    1.421   .     S
C920   C1059   1.409   .     D
C921   C990    1.406   .     D
C921   C1059   1.398   .     S
C921   C1046   1.536   1_655 S
C922   C924    1.486   .     S
C922   N117    1.359   1_545 D
C923   N926    1.427   .     S
C923   C114    1.411   1_545 D
C924   C113    1.412   1_545 D
C925   N926    1.284   .     D
C925   C928    1.504   .     S
C925   H1058   1.119   .     S
C927   C930    1.514   .     S
C927   C116    1.408   1_545 D
C928   C115    1.408   1_545 D
C929   C1049   1.536   .     S
C929   C1003   1.398   .     S
C929   C998    1.406   1_556 D
C930   C1003   1.409   .     D
C930   C999    1.421   1_556 S
N931   C96     1.359   1_545 D
N932   C597    1.358   1_545 D
C934   C998    1.398   .     S
C934   C999    1.409   .     D
C934   H1057   1.091   .     S
C935   C937    1.486   .     S
C935   N563    1.359   1_455 D
C936   N939    1.427   .     S
C936   C150    1.411   1_455 D
C937   C149    1.412   1_455 D
C938   N939    1.284   .     D
C938   C941    1.504   .     S
C938   H956    1.119   .     S
C940   C943    1.514   .     S
C940   C152    1.408   1_455 D
C941   C151    1.408   1_455 D
H942   C1053   1.091   .     S
C943   C1012   1.421   .     S
C943   C1053   1.409   .     D
C944   C1013   1.406   .     D
C944   C1053   1.398   .     S
C944   C1046   1.536   1_565 S
C945   C947    1.486   .     S
C945   N783    1.359   1_455 D
C946   N949    1.427   .     S
C946   C780    1.411   1_455 D
C947   C779    1.412   1_455 D
C948   N949    1.284   .     D
C948   C951    1.504   .     S
C948   H1052   1.119   .     S
C950   C953    1.514   .     S
C950   C782    1.408   1_455 D
C951   C781    1.408   1_455 D
C952   C1049   1.536   .     S
C952   C1026   1.398   .     S
C952   C1021   1.406   1_556 D
C953   C1026   1.409   .     D
C953   C1022   1.421   1_556 S
N954   C762    1.359   1_455 D
N955   C375    1.358   1_455 D
C957   C1021   1.398   .     S
C957   C1022   1.409   .     D
C957   H1051   1.091   .     S
C958   C960    1.486   .     S
C959   N962    1.427   .     S
C961   N962    1.284   .     D
C961   C964    1.504   .     S
C961   H979    1.119   .     S
C963   C966    1.514   .     S
H965   C1065   1.091   .     S
C966   C1065   1.409   .     D
C967   C1050   1.536   .     S
C967   C1065   1.398   .     S
C968   C970    1.486   .     S
C969   N972    1.427   .     S
C971   N972    1.284   .     D
C971   C974    1.504   .     S
C971   H1064   1.119   .     S
C973   C976    1.514   .     S
C975   C906    1.406   1_554 D
C975   C1045   1.536   1_665 S
C976   C907    1.421   1_554 S
C980   H1063   1.091   .     S
C981   C983    1.486   .     S
C981   N119    1.359   1_545 D
C982   N985    1.427   .     S
C982   C594    1.411   1_545 D
C983   C593    1.412   1_545 D
C984   N985    1.284   .     D
C984   C987    1.504   .     S
C984   H1002   1.119   .     S
C986   C989    1.514   .     S
C986   C596    1.408   1_545 D
C987   C595    1.408   1_545 D
H988   C1068   1.091   .     S
C989   C1068   1.409   .     D
C990   C1068   1.398   .     S
C990   C1050   1.536   1_655 S
C991   C993    1.486   .     S
C991   N339    1.359   1_545 D
C992   N995    1.427   .     S
C992   C336    1.411   1_545 S
C993   C335    1.412   1_545 S
C994   N995    1.284   .     D
C994   C997    1.504   .     S
C994   H1067   1.119   .     S
C996   C999    1.514   .     S
C996   C338    1.408   1_545 S
C997   C337    1.408   1_545 S
C998   C1045   1.536   .     S
C998   C929    1.406   1_554 D
C999   C930    1.421   1_554 S
N1000  C318    1.359   1_545 D
N1001  C819    1.358   1_545 D
C1003  H1066   1.091   .     S
C1004  C1006   1.486   .     S
C1004  N785    1.359   1_455 D
C1005  N1008   1.427   .     S
C1005  C372    1.411   1_455 D
C1006  C371    1.412   1_455 D
C1007  N1008   1.284   .     D
C1007  C1010   1.504   .     S
C1007  H1025   1.119   .     S
C1009  C1012   1.514   .     S
C1009  C374    1.408   1_455 D
C1010  C373    1.408   1_455 D
H1011  C1062   1.091   .     S
C1012  C1062   1.409   .     D
C1013  C1062   1.398   .     S
C1013  C1050   1.536   1_565 S
C1014  C1016   1.486   .     S
C1014  N561    1.359   1_455 D
C1015  N1018   1.427   .     S
C1015  C558    1.411   1_455 S
C1016  C557    1.412   1_455 S
C1017  N1018   1.284   .     D
C1017  C1020   1.504   .     S
C1017  H1061   1.119   .     S
C1019  C1022   1.514   .     S
C1019  C560    1.408   1_455 S
C1020  C559    1.408   1_455 S
C1021  C1045   1.536   .     S
C1021  C952    1.406   1_554 D
C1022  C953    1.421   1_554 S
N1023  C540    1.359   1_455 D
N1024  C153    1.358   1_455 D
C1026  H1060   1.091   .     S
H1027  C1028   1.091   .     S
C1029  H1042   1.091   .     S
H1030  C1031   1.091   .     S
C1032  H1041   1.091   .     S
H1033  C1034   1.091   .     S
C1035  H1040   1.091   .     S
H1036  C1037   1.091   .     S
C1038  H1039   1.091   .     S
H1043  C1045   1.091   .     S
H1044  C1046   1.091   .     S
C1045  C975    1.536   1_445 S
C1046  C921    1.536   1_455 S
C1046  C944    1.536   1_545 S
H1047  C1049   1.091   .     S
H1048  C1050   1.091   .     S
C1049  C906    1.536   1_445 S
C1050  C990    1.536   1_455 S
C1050  C1013   1.536   1_545 S
