data_93
_audit_creation_date              2023-09-08
_audit_creation_method            'Materials Studio'
_symmetry_space_group_name_H-M    'P1'
_symmetry_Int_Tables_number       1
_symmetry_cell_setting            triclinic
loop_
_symmetry_equiv_pos_as_xyz
  x,y,z
_cell_length_a                    19.7413
_cell_length_b                    25.0964
_cell_length_c                    12.2504
_cell_angle_alpha                 90.0000
_cell_angle_beta                  90.0000
_cell_angle_gamma                 90.0000
loop_
_atom_site_label
_atom_site_type_symbol
_atom_site_fract_x
_atom_site_fract_y
_atom_site_fract_z
_atom_site_U_iso_or_equiv
_atom_site_adp_type
_atom_site_occupancy
N1     N     0.56429   0.56429   0.45986   0.00000  Uiso   1.00
N2     N     0.56429   0.06429   0.95986   0.00000  Uiso   1.00
N3     N     0.06429   0.56429   0.95986   0.00000  Uiso   1.00
N4     N     0.06429   0.06429   0.45986   0.00000  Uiso   1.00
N5     N     0.43571   0.43571   0.45986   0.00000  Uiso   1.00
N6     N     0.43571   0.93571   0.95986   0.00000  Uiso   1.00
N7     N     0.93571   0.43571   0.95986   0.00000  Uiso   1.00
N8     N     0.93571   0.93571   0.45986   0.00000  Uiso   1.00
N9     N     0.81429   0.68571   0.70986   0.00000  Uiso   1.00
N10    N     0.81429   0.18571   0.20986   0.00000  Uiso   1.00
N11    N     0.31429   0.68571   0.20986   0.00000  Uiso   1.00
N12    N     0.31429   0.18571   0.70986   0.00000  Uiso   1.00
N13    N     0.68571   0.81429   0.70986   0.00000  Uiso   1.00
N14    N     0.68571   0.31429   0.20986   0.00000  Uiso   1.00
N15    N     0.18571   0.81429   0.20986   0.00000  Uiso   1.00
N16    N     0.18571   0.31429   0.70986   0.00000  Uiso   1.00
N17    N     0.43574   0.56434   0.53210   0.00000  Uiso   1.00
N18    N     0.43574   0.06434   0.03210   0.00000  Uiso   1.00
N19    N     0.93574   0.56434   0.03210   0.00000  Uiso   1.00
N20    N     0.93574   0.06434   0.53210   0.00000  Uiso   1.00
N21    N     0.56426   0.43566   0.53210   0.00000  Uiso   1.00
N22    N     0.56426   0.93566   0.03210   0.00000  Uiso   1.00
N23    N     0.06426   0.43566   0.03210   0.00000  Uiso   1.00
N24    N     0.06426   0.93566   0.53210   0.00000  Uiso   1.00
N25    N     0.68574   0.68566   0.78210   0.00000  Uiso   1.00
N26    N     0.68574   0.18566   0.28210   0.00000  Uiso   1.00
N27    N     0.18574   0.68566   0.28210   0.00000  Uiso   1.00
N28    N     0.18574   0.18566   0.78210   0.00000  Uiso   1.00
N29    N     0.81426   0.81434   0.78210   0.00000  Uiso   1.00
N30    N     0.81426   0.31434   0.28210   0.00000  Uiso   1.00
N31    N     0.31426   0.81434   0.28210   0.00000  Uiso   1.00
N32    N     0.31426   0.31434   0.78210   0.00000  Uiso   1.00
C33    C     0.53660   0.46340   0.71115   0.00000  Uiso   1.00
C34    C     0.53660   0.96340   0.21115   0.00000  Uiso   1.00
C35    C     0.03660   0.46340   0.21115   0.00000  Uiso   1.00
C36    C     0.03660   0.96340   0.71115   0.00000  Uiso   1.00
C37    C     0.46340   0.53660   0.71115   0.00000  Uiso   1.00
C38    C     0.46340   0.03660   0.21115   0.00000  Uiso   1.00
C39    C     0.96340   0.53660   0.21115   0.00000  Uiso   1.00
C40    C     0.96340   0.03660   0.71115   0.00000  Uiso   1.00
C41    C     0.78660   0.78660   0.96115   0.00000  Uiso   1.00
C42    C     0.78660   0.28660   0.46115   0.00000  Uiso   1.00
C43    C     0.28660   0.78660   0.46115   0.00000  Uiso   1.00
C44    C     0.28660   0.28660   0.96115   0.00000  Uiso   1.00
C45    C     0.71340   0.71340   0.96115   0.00000  Uiso   1.00
C46    C     0.71340   0.21340   0.46115   0.00000  Uiso   1.00
C47    C     0.21340   0.71340   0.46115   0.00000  Uiso   1.00
C48    C     0.21340   0.21340   0.96115   0.00000  Uiso   1.00
C49    C     0.53660   0.53660   0.27776   0.00000  Uiso   1.00
C50    C     0.53660   0.03660   0.77776   0.00000  Uiso   1.00
C51    C     0.03660   0.53660   0.77776   0.00000  Uiso   1.00
C52    C     0.03660   0.03660   0.27776   0.00000  Uiso   1.00
C53    C     0.46340   0.46340   0.27776   0.00000  Uiso   1.00
C54    C     0.46340   0.96340   0.77776   0.00000  Uiso   1.00
C55    C     0.96340   0.46340   0.77776   0.00000  Uiso   1.00
C56    C     0.96340   0.96340   0.27776   0.00000  Uiso   1.00
C57    C     0.78660   0.71340   0.52776   0.00000  Uiso   1.00
C58    C     0.78660   0.21340   0.02776   0.00000  Uiso   1.00
C59    C     0.28660   0.71340   0.02776   0.00000  Uiso   1.00
C60    C     0.28660   0.21340   0.52776   0.00000  Uiso   1.00
C61    C     0.71340   0.78660   0.52776   0.00000  Uiso   1.00
C62    C     0.71340   0.28660   0.02776   0.00000  Uiso   1.00
C63    C     0.21340   0.78660   0.02776   0.00000  Uiso   1.00
C64    C     0.21340   0.28660   0.52776   0.00000  Uiso   1.00
C65    C     0.53660   0.46340   0.82375   0.00000  Uiso   1.00
C66    C     0.53660   0.96340   0.32375   0.00000  Uiso   1.00
C67    C     0.03660   0.46340   0.32375   0.00000  Uiso   1.00
C68    C     0.03660   0.96340   0.82375   0.00000  Uiso   1.00
C69    C     0.46340   0.53660   0.82375   0.00000  Uiso   1.00
C70    C     0.46340   0.03660   0.32375   0.00000  Uiso   1.00
C71    C     0.96340   0.53660   0.32375   0.00000  Uiso   1.00
C72    C     0.96340   0.03660   0.82375   0.00000  Uiso   1.00
C73    C     0.78660   0.78660   0.07375   0.00000  Uiso   1.00
C74    C     0.78660   0.28660   0.57375   0.00000  Uiso   1.00
C75    C     0.28660   0.78660   0.57375   0.00000  Uiso   1.00
C76    C     0.28660   0.28660   0.07375   0.00000  Uiso   1.00
C77    C     0.71340   0.71340   0.07375   0.00000  Uiso   1.00
C78    C     0.71340   0.21340   0.57375   0.00000  Uiso   1.00
C79    C     0.21340   0.71340   0.57375   0.00000  Uiso   1.00
C80    C     0.21340   0.21340   0.07375   0.00000  Uiso   1.00
C81    C     0.53660   0.53660   0.16516   0.00000  Uiso   1.00
C82    C     0.53660   0.03660   0.66516   0.00000  Uiso   1.00
C83    C     0.03660   0.53660   0.66516   0.00000  Uiso   1.00
C84    C     0.03660   0.03660   0.16516   0.00000  Uiso   1.00
C85    C     0.46340   0.46340   0.16516   0.00000  Uiso   1.00
C86    C     0.46340   0.96340   0.66516   0.00000  Uiso   1.00
C87    C     0.96340   0.46340   0.66516   0.00000  Uiso   1.00
C88    C     0.96340   0.96340   0.16516   0.00000  Uiso   1.00
C89    C     0.78660   0.71340   0.41516   0.00000  Uiso   1.00
C90    C     0.78660   0.21340   0.91516   0.00000  Uiso   1.00
C91    C     0.28660   0.71340   0.91516   0.00000  Uiso   1.00
C92    C     0.28660   0.21340   0.41516   0.00000  Uiso   1.00
C93    C     0.71340   0.78660   0.41516   0.00000  Uiso   1.00
C94    C     0.71340   0.28660   0.91516   0.00000  Uiso   1.00
C95    C     0.21340   0.78660   0.91516   0.00000  Uiso   1.00
C96    C     0.21340   0.28660   0.41516   0.00000  Uiso   1.00
C97    C     0.57152   0.42721   0.63906   0.00000  Uiso   1.00
C98    C     0.57152   0.92721   0.13906   0.00000  Uiso   1.00
C99    C     0.07152   0.42721   0.13906   0.00000  Uiso   1.00
C100   C     0.07152   0.92721   0.63906   0.00000  Uiso   1.00
C101   C     0.42848   0.57279   0.63906   0.00000  Uiso   1.00
C102   C     0.42848   0.07279   0.13906   0.00000  Uiso   1.00
C103   C     0.92848   0.57279   0.13906   0.00000  Uiso   1.00
C104   C     0.92848   0.07279   0.63906   0.00000  Uiso   1.00
C105   C     0.82152   0.82279   0.88906   0.00000  Uiso   1.00
C106   C     0.82152   0.32279   0.38906   0.00000  Uiso   1.00
C107   C     0.32152   0.82279   0.38906   0.00000  Uiso   1.00
C108   C     0.32152   0.32279   0.88906   0.00000  Uiso   1.00
C109   C     0.67848   0.67721   0.88906   0.00000  Uiso   1.00
C110   C     0.67848   0.17721   0.38906   0.00000  Uiso   1.00
C111   C     0.17848   0.67721   0.38906   0.00000  Uiso   1.00
C112   C     0.17848   0.17721   0.88906   0.00000  Uiso   1.00
C113   C     0.57228   0.57227   0.35327   0.00000  Uiso   1.00
C114   C     0.57228   0.07227   0.85327   0.00000  Uiso   1.00
C115   C     0.07228   0.57227   0.85327   0.00000  Uiso   1.00
C116   C     0.07228   0.07227   0.35327   0.00000  Uiso   1.00
C117   C     0.42772   0.42773   0.35327   0.00000  Uiso   1.00
C118   C     0.42772   0.92773   0.85327   0.00000  Uiso   1.00
C119   C     0.92772   0.42773   0.85327   0.00000  Uiso   1.00
C120   C     0.92772   0.92773   0.35327   0.00000  Uiso   1.00
C121   C     0.82228   0.67773   0.60327   0.00000  Uiso   1.00
C122   C     0.82228   0.17773   0.10327   0.00000  Uiso   1.00
C123   C     0.32228   0.67773   0.10327   0.00000  Uiso   1.00
C124   C     0.32228   0.17773   0.60327   0.00000  Uiso   1.00
C125   C     0.67772   0.82227   0.60327   0.00000  Uiso   1.00
C126   C     0.67772   0.32227   0.10327   0.00000  Uiso   1.00
C127   C     0.17772   0.82227   0.10327   0.00000  Uiso   1.00
C128   C     0.17772   0.32227   0.60327   0.00000  Uiso   1.00
C129   C     0.40427   0.40492   0.54379   0.00000  Uiso   1.00
C130   C     0.40427   0.90492   0.04379   0.00000  Uiso   1.00
C131   C     0.90427   0.40492   0.04379   0.00000  Uiso   1.00
C132   C     0.90427   0.90492   0.54379   0.00000  Uiso   1.00
C133   C     0.59573   0.59508   0.54379   0.00000  Uiso   1.00
C134   C     0.59573   0.09508   0.04379   0.00000  Uiso   1.00
C135   C     0.09573   0.59508   0.04379   0.00000  Uiso   1.00
C136   C     0.09573   0.09508   0.54379   0.00000  Uiso   1.00
C137   C     0.65427   0.84508   0.79379   0.00000  Uiso   1.00
C138   C     0.65427   0.34508   0.29379   0.00000  Uiso   1.00
C139   C     0.15427   0.84508   0.29379   0.00000  Uiso   1.00
C140   C     0.15427   0.34508   0.79379   0.00000  Uiso   1.00
C141   C     0.84573   0.65492   0.79379   0.00000  Uiso   1.00
C142   C     0.84573   0.15492   0.29379   0.00000  Uiso   1.00
C143   C     0.34573   0.65492   0.29379   0.00000  Uiso   1.00
C144   C     0.34573   0.15492   0.79379   0.00000  Uiso   1.00
C145   C     0.59530   0.40470   0.44786   0.00000  Uiso   1.00
C146   C     0.59530   0.90470   0.94786   0.00000  Uiso   1.00
C147   C     0.09530   0.40470   0.94786   0.00000  Uiso   1.00
C148   C     0.09530   0.90470   0.44786   0.00000  Uiso   1.00
C149   C     0.40470   0.59530   0.44786   0.00000  Uiso   1.00
C150   C     0.40470   0.09530   0.94786   0.00000  Uiso   1.00
C151   C     0.90470   0.59530   0.94786   0.00000  Uiso   1.00
C152   C     0.90470   0.09530   0.44786   0.00000  Uiso   1.00
C153   C     0.84530   0.84530   0.69786   0.00000  Uiso   1.00
C154   C     0.84530   0.34530   0.19786   0.00000  Uiso   1.00
C155   C     0.34530   0.84530   0.19786   0.00000  Uiso   1.00
C156   C     0.34530   0.34530   0.69786   0.00000  Uiso   1.00
C157   C     0.65470   0.65470   0.69786   0.00000  Uiso   1.00
C158   C     0.65470   0.15470   0.19786   0.00000  Uiso   1.00
C159   C     0.15470   0.65470   0.19786   0.00000  Uiso   1.00
C160   C     0.15470   0.15470   0.69786   0.00000  Uiso   1.00
C161   C     0.62718   0.42930   0.36032   0.00000  Uiso   1.00
C162   C     0.62718   0.92930   0.86032   0.00000  Uiso   1.00
C163   C     0.12718   0.42930   0.86032   0.00000  Uiso   1.00
C164   C     0.12718   0.92930   0.36032   0.00000  Uiso   1.00
C165   C     0.37282   0.57070   0.36032   0.00000  Uiso   1.00
C166   C     0.37282   0.07070   0.86032   0.00000  Uiso   1.00
C167   C     0.87282   0.57070   0.86032   0.00000  Uiso   1.00
C168   C     0.87282   0.07070   0.36032   0.00000  Uiso   1.00
C169   C     0.87718   0.82070   0.61032   0.00000  Uiso   1.00
C170   C     0.87718   0.32070   0.11032   0.00000  Uiso   1.00
C171   C     0.37718   0.82070   0.11032   0.00000  Uiso   1.00
C172   C     0.37718   0.32070   0.61032   0.00000  Uiso   1.00
C173   C     0.62282   0.67930   0.61032   0.00000  Uiso   1.00
C174   C     0.62282   0.17930   0.11032   0.00000  Uiso   1.00
C175   C     0.12282   0.67930   0.11032   0.00000  Uiso   1.00
C176   C     0.12282   0.17930   0.61032   0.00000  Uiso   1.00
C177   C     0.59367   0.34944   0.45445   0.00000  Uiso   1.00
C178   C     0.59367   0.84944   0.95445   0.00000  Uiso   1.00
C179   C     0.09367   0.34944   0.95445   0.00000  Uiso   1.00
C180   C     0.09367   0.84944   0.45445   0.00000  Uiso   1.00
C181   C     0.40633   0.65056   0.45445   0.00000  Uiso   1.00
C182   C     0.40633   0.15056   0.95445   0.00000  Uiso   1.00
C183   C     0.90633   0.65056   0.95445   0.00000  Uiso   1.00
C184   C     0.90633   0.15056   0.45445   0.00000  Uiso   1.00
C185   C     0.84367   0.90056   0.70445   0.00000  Uiso   1.00
C186   C     0.84367   0.40056   0.20445   0.00000  Uiso   1.00
C187   C     0.34367   0.90056   0.20445   0.00000  Uiso   1.00
C188   C     0.34367   0.40056   0.70445   0.00000  Uiso   1.00
C189   C     0.65633   0.59944   0.70445   0.00000  Uiso   1.00
C190   C     0.65633   0.09944   0.20445   0.00000  Uiso   1.00
C191   C     0.15633   0.59944   0.20445   0.00000  Uiso   1.00
C192   C     0.15633   0.09944   0.70445   0.00000  Uiso   1.00
C193   C     0.59306   0.64933   0.53099   0.00000  Uiso   1.00
C194   C     0.59306   0.14933   0.03099   0.00000  Uiso   1.00
C195   C     0.09306   0.64933   0.03099   0.00000  Uiso   1.00
C196   C     0.09306   0.14933   0.53099   0.00000  Uiso   1.00
C197   C     0.40694   0.35067   0.53099   0.00000  Uiso   1.00
C198   C     0.40694   0.85067   0.03099   0.00000  Uiso   1.00
C199   C     0.90694   0.35067   0.03099   0.00000  Uiso   1.00
C200   C     0.90694   0.85067   0.53099   0.00000  Uiso   1.00
C201   C     0.84306   0.60067   0.78099   0.00000  Uiso   1.00
C202   C     0.84306   0.10067   0.28099   0.00000  Uiso   1.00
C203   C     0.34306   0.60067   0.28099   0.00000  Uiso   1.00
C204   C     0.34306   0.10067   0.78099   0.00000  Uiso   1.00
C205   C     0.65694   0.89933   0.78099   0.00000  Uiso   1.00
C206   C     0.65694   0.39933   0.28099   0.00000  Uiso   1.00
C207   C     0.15694   0.89933   0.28099   0.00000  Uiso   1.00
C208   C     0.15694   0.39933   0.78099   0.00000  Uiso   1.00
C209   C     0.62658   0.56947   0.62522   0.00000  Uiso   1.00
C210   C     0.62658   0.06947   0.12522   0.00000  Uiso   1.00
C211   C     0.12658   0.56947   0.12522   0.00000  Uiso   1.00
C212   C     0.12658   0.06947   0.62522   0.00000  Uiso   1.00
C213   C     0.37342   0.43053   0.62522   0.00000  Uiso   1.00
C214   C     0.37342   0.93053   0.12522   0.00000  Uiso   1.00
C215   C     0.87342   0.43053   0.12522   0.00000  Uiso   1.00
C216   C     0.87342   0.93053   0.62522   0.00000  Uiso   1.00
C217   C     0.87658   0.68053   0.87522   0.00000  Uiso   1.00
C218   C     0.87658   0.18053   0.37522   0.00000  Uiso   1.00
C219   C     0.37658   0.68053   0.37522   0.00000  Uiso   1.00
C220   C     0.37658   0.18053   0.87522   0.00000  Uiso   1.00
C221   C     0.62342   0.81947   0.87522   0.00000  Uiso   1.00
C222   C     0.62342   0.31947   0.37522   0.00000  Uiso   1.00
C223   C     0.12342   0.81947   0.37522   0.00000  Uiso   1.00
C224   C     0.12342   0.31947   0.87522   0.00000  Uiso   1.00
H225   H     0.56749   0.43251   0.87024   0.00000  Uiso   1.00
H226   H     0.56749   0.93251   0.37024   0.00000  Uiso   1.00
H227   H     0.06749   0.43251   0.37024   0.00000  Uiso   1.00
H228   H     0.06749   0.93251   0.87024   0.00000  Uiso   1.00
H229   H     0.43251   0.56749   0.87024   0.00000  Uiso   1.00
H230   H     0.43251   0.06749   0.37024   0.00000  Uiso   1.00
H231   H     0.93251   0.56749   0.37024   0.00000  Uiso   1.00
H232   H     0.93251   0.06749   0.87024   0.00000  Uiso   1.00
H233   H     0.81749   0.81749   0.12024   0.00000  Uiso   1.00
H234   H     0.81749   0.31749   0.62024   0.00000  Uiso   1.00
H235   H     0.31749   0.81749   0.62024   0.00000  Uiso   1.00
H236   H     0.31749   0.31749   0.12024   0.00000  Uiso   1.00
H237   H     0.68251   0.68251   0.12024   0.00000  Uiso   1.00
H238   H     0.68251   0.18251   0.62024   0.00000  Uiso   1.00
H239   H     0.18251   0.68251   0.62024   0.00000  Uiso   1.00
H240   H     0.18251   0.18251   0.12024   0.00000  Uiso   1.00
H241   H     0.56397   0.56397   0.12397   0.00000  Uiso   1.00
H242   H     0.56397   0.06397   0.62397   0.00000  Uiso   1.00
H243   H     0.06397   0.56397   0.62397   0.00000  Uiso   1.00
H244   H     0.06397   0.06397   0.12397   0.00000  Uiso   1.00
H245   H     0.43603   0.43603   0.12397   0.00000  Uiso   1.00
H246   H     0.43603   0.93603   0.62397   0.00000  Uiso   1.00
H247   H     0.93603   0.43603   0.62397   0.00000  Uiso   1.00
H248   H     0.93603   0.93603   0.12397   0.00000  Uiso   1.00
H249   H     0.81397   0.68603   0.37397   0.00000  Uiso   1.00
H250   H     0.81397   0.18603   0.87397   0.00000  Uiso   1.00
H251   H     0.31397   0.68603   0.87397   0.00000  Uiso   1.00
H252   H     0.31397   0.18603   0.37397   0.00000  Uiso   1.00
H253   H     0.68603   0.81397   0.37397   0.00000  Uiso   1.00
H254   H     0.68603   0.31397   0.87397   0.00000  Uiso   1.00
H255   H     0.18603   0.81397   0.87397   0.00000  Uiso   1.00
H256   H     0.18603   0.31397   0.37397   0.00000  Uiso   1.00
H257   H     0.62846   0.47457   0.35479   0.00000  Uiso   1.00
H258   H     0.62846   0.97457   0.85479   0.00000  Uiso   1.00
H259   H     0.12846   0.47457   0.85479   0.00000  Uiso   1.00
H260   H     0.12846   0.97457   0.35479   0.00000  Uiso   1.00
H261   H     0.37154   0.52543   0.35479   0.00000  Uiso   1.00
H262   H     0.37154   0.02543   0.85479   0.00000  Uiso   1.00
H263   H     0.87154   0.52543   0.85479   0.00000  Uiso   1.00
H264   H     0.87154   0.02543   0.35479   0.00000  Uiso   1.00
H265   H     0.87846   0.77543   0.60479   0.00000  Uiso   1.00
H266   H     0.87846   0.27543   0.10479   0.00000  Uiso   1.00
H267   H     0.37846   0.77543   0.10479   0.00000  Uiso   1.00
H268   H     0.37846   0.27543   0.60479   0.00000  Uiso   1.00
H269   H     0.62154   0.72457   0.60479   0.00000  Uiso   1.00
H270   H     0.62154   0.22457   0.10479   0.00000  Uiso   1.00
H271   H     0.12154   0.72457   0.10479   0.00000  Uiso   1.00
H272   H     0.12154   0.22457   0.60479   0.00000  Uiso   1.00
H273   H     0.56743   0.32923   0.52617   0.00000  Uiso   1.00
H274   H     0.56743   0.82923   0.02617   0.00000  Uiso   1.00
H275   H     0.06743   0.32923   0.02617   0.00000  Uiso   1.00
H276   H     0.06743   0.82923   0.52617   0.00000  Uiso   1.00
H277   H     0.43257   0.67077   0.52617   0.00000  Uiso   1.00
H278   H     0.43257   0.17077   0.02617   0.00000  Uiso   1.00
H279   H     0.93257   0.67077   0.02617   0.00000  Uiso   1.00
H280   H     0.93257   0.17077   0.52617   0.00000  Uiso   1.00
H281   H     0.81743   0.92077   0.77617   0.00000  Uiso   1.00
H282   H     0.81743   0.42077   0.27617   0.00000  Uiso   1.00
H283   H     0.31743   0.92077   0.27617   0.00000  Uiso   1.00
H284   H     0.31743   0.42077   0.77617   0.00000  Uiso   1.00
H285   H     0.68257   0.57923   0.77617   0.00000  Uiso   1.00
H286   H     0.68257   0.07923   0.27617   0.00000  Uiso   1.00
H287   H     0.18257   0.57923   0.27617   0.00000  Uiso   1.00
H288   H     0.18257   0.07923   0.77617   0.00000  Uiso   1.00
H289   H     0.56685   0.66721   0.45668   0.00000  Uiso   1.00
H290   H     0.56685   0.16721   0.95668   0.00000  Uiso   1.00
H291   H     0.06685   0.66721   0.95668   0.00000  Uiso   1.00
H292   H     0.06685   0.16721   0.45668   0.00000  Uiso   1.00
H293   H     0.43315   0.33279   0.45668   0.00000  Uiso   1.00
H294   H     0.43315   0.83279   0.95668   0.00000  Uiso   1.00
H295   H     0.93315   0.33279   0.95668   0.00000  Uiso   1.00
H296   H     0.93315   0.83279   0.45668   0.00000  Uiso   1.00
H297   H     0.81685   0.58279   0.70668   0.00000  Uiso   1.00
H298   H     0.81685   0.08279   0.20668   0.00000  Uiso   1.00
H299   H     0.31685   0.58279   0.20668   0.00000  Uiso   1.00
H300   H     0.31685   0.08279   0.70668   0.00000  Uiso   1.00
H301   H     0.68315   0.91721   0.70668   0.00000  Uiso   1.00
H302   H     0.68315   0.41721   0.20668   0.00000  Uiso   1.00
H303   H     0.18315   0.91721   0.20668   0.00000  Uiso   1.00
H304   H     0.18315   0.41721   0.70668   0.00000  Uiso   1.00
H305   H     0.62735   0.52412   0.62669   0.00000  Uiso   1.00
H306   H     0.62735   0.02412   0.12669   0.00000  Uiso   1.00
H307   H     0.12735   0.52412   0.12669   0.00000  Uiso   1.00
H308   H     0.12735   0.02412   0.62669   0.00000  Uiso   1.00
H309   H     0.37265   0.47588   0.62669   0.00000  Uiso   1.00
H310   H     0.37265   0.97588   0.12669   0.00000  Uiso   1.00
H311   H     0.87265   0.47588   0.12669   0.00000  Uiso   1.00
H312   H     0.87265   0.97588   0.62669   0.00000  Uiso   1.00
H313   H     0.87735   0.72588   0.87669   0.00000  Uiso   1.00
H314   H     0.87735   0.22588   0.37669   0.00000  Uiso   1.00
H315   H     0.37735   0.72588   0.37669   0.00000  Uiso   1.00
H316   H     0.37735   0.22588   0.87669   0.00000  Uiso   1.00
H317   H     0.62265   0.77412   0.87669   0.00000  Uiso   1.00
H318   H     0.62265   0.27412   0.37669   0.00000  Uiso   1.00
H319   H     0.12265   0.77412   0.37669   0.00000  Uiso   1.00
H320   H     0.12265   0.27412   0.87669   0.00000  Uiso   1.00
B321   B     0.26468   0.07148   0.44347   0.00000  Uiso   1.00
B322   B     0.26468   0.57148   0.94347   0.00000  Uiso   1.00
B323   B     0.76468   0.07148   0.94347   0.00000  Uiso   1.00
B324   B     0.76468   0.57148   0.44347   0.00000  Uiso   1.00
B325   B     0.73532   0.92852   0.44347   0.00000  Uiso   1.00
B326   B     0.73532   0.42852   0.94347   0.00000  Uiso   1.00
B327   B     0.23532   0.92852   0.94347   0.00000  Uiso   1.00
B328   B     0.23532   0.42852   0.44347   0.00000  Uiso   1.00
B329   B     0.51468   0.17852   0.69347   0.00000  Uiso   1.00
B330   B     0.51468   0.67852   0.19347   0.00000  Uiso   1.00
B331   B     0.01468   0.17852   0.19347   0.00000  Uiso   1.00
B332   B     0.01468   0.67852   0.69347   0.00000  Uiso   1.00
B333   B     0.98532   0.32148   0.69347   0.00000  Uiso   1.00
B334   B     0.98532   0.82148   0.19347   0.00000  Uiso   1.00
B335   B     0.48532   0.32148   0.19347   0.00000  Uiso   1.00
B336   B     0.48532   0.82148   0.69347   0.00000  Uiso   1.00
F337   F     0.20385   0.07760   0.50383   0.00000  Uiso   1.00
F338   F     0.20385   0.57760   1.00383   0.00000  Uiso   1.00
F339   F     0.70385   0.07760   1.00383   0.00000  Uiso   1.00
F340   F     0.70385   0.57760   0.50383   0.00000  Uiso   1.00
F341   F     0.79615   0.92240   0.50383   0.00000  Uiso   1.00
F342   F     0.79615   0.42240   1.00383   0.00000  Uiso   1.00
F343   F     0.29615   0.92240   1.00383   0.00000  Uiso   1.00
F344   F     0.29615   0.42240   0.50383   0.00000  Uiso   1.00
F345   F     0.45385   0.17240   0.75383   0.00000  Uiso   1.00
F346   F     0.45385   0.67240   0.25383   0.00000  Uiso   1.00
F347   F    -0.04615   0.17240   0.25383   0.00000  Uiso   1.00
F348   F    -0.04615   0.67240   0.75383   0.00000  Uiso   1.00
F349   F     1.04615   0.32760   0.75383   0.00000  Uiso   1.00
F350   F     1.04615   0.82760   0.25383   0.00000  Uiso   1.00
F351   F     0.54615   0.32760   0.25383   0.00000  Uiso   1.00
F352   F     0.54615   0.82760   0.75383   0.00000  Uiso   1.00
F353   F     0.30884   0.03663   0.49990   0.00000  Uiso   1.00
F354   F     0.30884   0.53663   0.99990   0.00000  Uiso   1.00
F355   F     0.80884   0.03663   0.99990   0.00000  Uiso   1.00
F356   F     0.80884   0.53663   0.49990   0.00000  Uiso   1.00
F357   F     0.69116   0.96337   0.49990   0.00000  Uiso   1.00
F358   F     0.69116   0.46337   0.99990   0.00000  Uiso   1.00
F359   F     0.19116   0.96337   0.99990   0.00000  Uiso   1.00
F360   F     0.19116   0.46337   0.49990   0.00000  Uiso   1.00
F361   F     0.55884   0.21337   0.74990   0.00000  Uiso   1.00
F362   F     0.55884   0.71337   0.24990   0.00000  Uiso   1.00
F363   F     0.05884   0.21337   0.24990   0.00000  Uiso   1.00
F364   F     0.05884   0.71337   0.74990   0.00000  Uiso   1.00
F365   F     0.94116   0.28663   0.74990   0.00000  Uiso   1.00
F366   F     0.94116   0.78663   0.24990   0.00000  Uiso   1.00
F367   F     0.44116   0.28663   0.24990   0.00000  Uiso   1.00
F368   F     0.44116   0.78663   0.74990   0.00000  Uiso   1.00
F369   F     0.25002   0.04957   0.33945   0.00000  Uiso   1.00
F370   F     0.25002   0.54957   0.83945   0.00000  Uiso   1.00
F371   F     0.75002   0.04957   0.83945   0.00000  Uiso   1.00
F372   F     0.75002   0.54957   0.33945   0.00000  Uiso   1.00
F373   F     0.74998   0.95043   0.33945   0.00000  Uiso   1.00
F374   F     0.74998   0.45043   0.83945   0.00000  Uiso   1.00
F375   F     0.24998   0.95043   0.83945   0.00000  Uiso   1.00
F376   F     0.24998   0.45043   0.33945   0.00000  Uiso   1.00
F377   F     0.50002   0.20043   0.58945   0.00000  Uiso   1.00
F378   F     0.50002   0.70043   0.08945   0.00000  Uiso   1.00
F379   F     0.00002   0.20043   0.08945   0.00000  Uiso   1.00
F380   F     0.00002   0.70043   0.58945   0.00000  Uiso   1.00
F381   F     0.99998   0.29957   0.58945   0.00000  Uiso   1.00
F382   F     0.99998   0.79957   0.08945   0.00000  Uiso   1.00
F383   F     0.49998   0.29957   0.08945   0.00000  Uiso   1.00
F384   F     0.49998   0.79957   0.58945   0.00000  Uiso   1.00
F385   F     0.29648   0.12183   0.43060   0.00000  Uiso   1.00
F386   F     0.29648   0.62183   0.93060   0.00000  Uiso   1.00
F387   F     0.79648   0.12183   0.93060   0.00000  Uiso   1.00
F388   F     0.79648   0.62183   0.43060   0.00000  Uiso   1.00
F389   F     0.70352   0.87817   0.43060   0.00000  Uiso   1.00
F390   F     0.70352   0.37817   0.93060   0.00000  Uiso   1.00
F391   F     0.20352   0.87817   0.93060   0.00000  Uiso   1.00
F392   F     0.20352   0.37817   0.43060   0.00000  Uiso   1.00
F393   F     0.54648   0.12817   0.68060   0.00000  Uiso   1.00
F394   F     0.54648   0.62817   0.18060   0.00000  Uiso   1.00
F395   F     0.04648   0.12817   0.18060   0.00000  Uiso   1.00
F396   F     0.04648   0.62817   0.68060   0.00000  Uiso   1.00
F397   F     0.95352   0.37183   0.68060   0.00000  Uiso   1.00
F398   F     0.95352   0.87183   0.18060   0.00000  Uiso   1.00
F399   F     0.45352   0.37183   0.18060   0.00000  Uiso   1.00
F400   F     0.45352   0.87183   0.68060   0.00000  Uiso   1.00
H401   H     0.39635   0.60684   0.67220   0.00000  Uiso   1.00
H402   H     0.39635   0.10684   0.17220   0.00000  Uiso   1.00
H403   H     0.89635   0.60684   0.17220   0.00000  Uiso   1.00
H404   H     0.89635   0.10684   0.67220   0.00000  Uiso   1.00
H405   H     0.60365   0.39316   0.67220   0.00000  Uiso   1.00
H406   H     0.60365   0.89316   0.17220   0.00000  Uiso   1.00
H407   H     0.10365   0.39316   0.17220   0.00000  Uiso   1.00
H408   H     0.10365   0.89316   0.67220   0.00000  Uiso   1.00
H409   H     0.64635   0.64316   0.92220   0.00000  Uiso   1.00
H410   H     0.64635   0.14316   0.42220   0.00000  Uiso   1.00
H411   H     0.14635   0.64316   0.42220   0.00000  Uiso   1.00
H412   H     0.14635   0.14316   0.92220   0.00000  Uiso   1.00
H413   H     0.85365   0.85684   0.92220   0.00000  Uiso   1.00
H414   H     0.85365   0.35684   0.42220   0.00000  Uiso   1.00
H415   H     0.35365   0.85684   0.42220   0.00000  Uiso   1.00
H416   H     0.35365   0.35684   0.92220   0.00000  Uiso   1.00
H417   H     0.60604   0.60600   0.32307   0.00000  Uiso   1.00
H418   H     0.60604   0.10600   0.82307   0.00000  Uiso   1.00
H419   H     0.10604   0.60600   0.82307   0.00000  Uiso   1.00
H420   H     0.10604   0.10600   0.32307   0.00000  Uiso   1.00
H421   H     0.39396   0.39400   0.32307   0.00000  Uiso   1.00
H422   H     0.39396   0.89400   0.82307   0.00000  Uiso   1.00
H423   H     0.89396   0.39400   0.82307   0.00000  Uiso   1.00
H424   H     0.89396   0.89400   0.32307   0.00000  Uiso   1.00
H425   H     0.85604   0.64400   0.57307   0.00000  Uiso   1.00
H426   H     0.85604   0.14400   0.07307   0.00000  Uiso   1.00
H427   H     0.35604   0.64400   0.07307   0.00000  Uiso   1.00
H428   H     0.35604   0.14400   0.57307   0.00000  Uiso   1.00
H429   H     0.64396   0.85600   0.57307   0.00000  Uiso   1.00
H430   H     0.64396   0.35600   0.07307   0.00000  Uiso   1.00
H431   H     0.14396   0.85600   0.07307   0.00000  Uiso   1.00
H432   H     0.14396   0.35600   0.57307   0.00000  Uiso   1.00
Co433  Co    0.50000   0.50000   0.49586   0.00000  Uiso   1.00
Co434  Co    0.50000   0.00000   0.99586   0.00000  Uiso   1.00
Co435  Co    0.00000   0.50000   0.99586   0.00000  Uiso   1.00
Co436  Co    0.00000   0.00000   0.49586   0.00000  Uiso   1.00
Co437  Co    0.75000   0.75000   0.74586   0.00000  Uiso   1.00
Co438  Co    0.75000   0.25000   0.24586   0.00000  Uiso   1.00
Co439  Co    0.25000   0.75000   0.24586   0.00000  Uiso   1.00
Co440  Co    0.25000   0.25000   0.74586   0.00000  Uiso   1.00
N441   N     0.50000   0.50000   0.65595   0.00000  Uiso   1.00
N442   N     0.50000   0.00000   0.15595   0.00000  Uiso   1.00
N443   N     0.00000   0.50000   0.15595   0.00000  Uiso   1.00
N444   N     0.00000   0.00000   0.65595   0.00000  Uiso   1.00
N445   N     0.75000   0.75000   0.90595   0.00000  Uiso   1.00
N446   N     0.75000   0.25000   0.40595   0.00000  Uiso   1.00
N447   N     0.25000   0.75000   0.40595   0.00000  Uiso   1.00
N448   N     0.25000   0.25000   0.90595   0.00000  Uiso   1.00
N449   N     0.50000   0.50000   0.33286   0.00000  Uiso   1.00
N450   N     0.50000   0.00000   0.83286   0.00000  Uiso   1.00
N451   N     0.00000   0.50000   0.83286   0.00000  Uiso   1.00
N452   N     0.00000   0.00000   0.33286   0.00000  Uiso   1.00
N453   N     0.75000   0.75000   0.58286   0.00000  Uiso   1.00
N454   N     0.75000   0.25000   0.08286   0.00000  Uiso   1.00
N455   N     0.25000   0.75000   0.08286   0.00000  Uiso   1.00
N456   N     0.25000   0.25000   0.58286   0.00000  Uiso   1.00
C457   C     0.50000   0.50000   0.10756   0.00000  Uiso   1.00
C458   C     0.50000   0.00000   0.60756   0.00000  Uiso   1.00
C459   C     0.00000   0.50000   0.60756   0.00000  Uiso   1.00
C460   C     0.00000   0.00000   0.10756   0.00000  Uiso   1.00
C461   C     0.75000   0.75000   0.35756   0.00000  Uiso   1.00
C462   C     0.75000   0.25000   0.85756   0.00000  Uiso   1.00
C463   C     0.25000   0.75000   0.85756   0.00000  Uiso   1.00
C464   C     0.25000   0.25000   0.35756   0.00000  Uiso   1.00
C465   C     0.50000   0.50000   0.88135   0.00000  Uiso   1.00
C466   C     0.50000   0.00000   0.38135   0.00000  Uiso   1.00
C467   C     0.00000   0.50000   0.38135   0.00000  Uiso   1.00
C468   C     0.00000   0.00000   0.88135   0.00000  Uiso   1.00
C469   C     0.75000   0.75000   0.13135   0.00000  Uiso   1.00
C470   C     0.75000   0.25000   0.63135   0.00000  Uiso   1.00
C471   C     0.25000   0.75000   0.63135   0.00000  Uiso   1.00
C472   C     0.25000   0.25000   0.13135   0.00000  Uiso   1.00
H473   H     0.50000   0.50000   0.03415   0.00000  Uiso   1.00
H474   H     0.50000   0.00000   0.53415   0.00000  Uiso   1.00
H475   H     0.00000   0.50000   0.53415   0.00000  Uiso   1.00
H476   H     0.00000   0.00000   0.03415   0.00000  Uiso   1.00
H477   H     0.75000   0.75000   0.28415   0.00000  Uiso   1.00
H478   H     0.75000   0.25000   0.78415   0.00000  Uiso   1.00
H479   H     0.25000   0.75000   0.78415   0.00000  Uiso   1.00
H480   H     0.25000   0.25000   0.28415   0.00000  Uiso   1.00
H481   H     0.50000   0.50000   0.95476   0.00000  Uiso   1.00
H482   H     0.50000   0.00000   0.45476   0.00000  Uiso   1.00
H483   H     0.00000   0.50000   0.45476   0.00000  Uiso   1.00
H484   H     0.00000   0.00000   0.95476   0.00000  Uiso   1.00
H485   H     0.75000   0.75000   0.20476   0.00000  Uiso   1.00
H486   H     0.75000   0.25000   0.70476   0.00000  Uiso   1.00
H487   H     0.25000   0.75000   0.70476   0.00000  Uiso   1.00
H488   H     0.25000   0.25000   0.20476   0.00000  Uiso   1.00
loop_
_geom_bond_atom_site_label_1
_geom_bond_atom_site_label_2
_geom_bond_distance
_geom_bond_site_symmetry_2
_ccdc_geom_bond_type
N1     C113    1.330   .     D
N1     C133    1.428   .     S
N1     Co433   2.100   .     S
N2     C114    1.330   .     D
N2     C134    1.428   1_556 S
N2     Co434   2.100   .     S
N3     C115    1.330   .     D
N3     C135    1.428   1_556 S
N3     Co435   2.100   .     S
N4     C116    1.330   .     D
N4     C136    1.428   .     S
N4     Co436   2.100   .     S
N5     C117    1.330   .     D
N5     C129    1.428   .     S
N5     Co433   2.100   .     S
N6     C118    1.330   .     D
N6     C130    1.428   1_556 S
N6     Co434   2.100   1_565 S
N7     C119    1.330   .     D
N7     C131    1.428   1_556 S
N7     Co435   2.100   1_655 S
N8     C120    1.330   .     D
N8     C132    1.428   .     S
N8     Co436   2.100   1_665 S
N9     C121    1.330   .     D
N9     C141    1.428   .     S
N9     Co437   2.100   .     S
N10    C122    1.330   .     D
N10    C142    1.428   .     S
N10    Co438   2.100   .     S
N11    C123    1.330   .     D
N11    C143    1.428   .     S
N11    Co439   2.100   .     S
N12    C124    1.330   .     D
N12    C144    1.428   .     S
N12    Co440   2.100   .     S
N13    C125    1.330   .     D
N13    C137    1.428   .     S
N13    Co437   2.100   .     S
N14    C126    1.330   .     D
N14    C138    1.428   .     S
N14    Co438   2.100   .     S
N15    C127    1.330   .     D
N15    C139    1.428   .     S
N15    Co439   2.100   .     S
N16    C128    1.330   .     D
N16    C140    1.428   .     S
N16    Co440   2.100   .     S
N17    C101    1.335   .     D
N17    C149    1.430   .     S
N17    Co433   2.101   .     S
N18    C102    1.335   .     D
N18    C150    1.430   1_554 S
N18    Co434   2.101   1_554 S
N19    C103    1.335   .     D
N19    C151    1.430   1_554 S
N19    Co435   2.101   1_654 S
N20    C104    1.335   .     D
N20    C152    1.430   .     S
N20    Co436   2.101   1_655 S
N21    C97     1.335   .     D
N21    C145    1.430   .     S
N21    Co433   2.101   .     S
N22    C98     1.335   .     D
N22    C146    1.430   1_554 S
N22    Co434   2.101   1_564 S
N23    C99     1.335   .     D
N23    C147    1.430   1_554 S
N23    Co435   2.101   1_554 S
N24    C100    1.335   .     D
N24    C148    1.430   .     S
N24    Co436   2.101   1_565 S
N25    C109    1.335   .     D
N25    C157    1.430   .     S
N25    Co437   2.101   .     S
N26    C110    1.335   .     D
N26    C158    1.430   .     S
N26    Co438   2.101   .     S
N27    C111    1.335   .     D
N27    C159    1.430   .     S
N27    Co439   2.101   .     S
N28    C112    1.335   .     D
N28    C160    1.430   .     S
N28    Co440   2.101   .     S
N29    C105    1.335   .     D
N29    C153    1.430   .     S
N29    Co437   2.101   .     S
N30    C106    1.335   .     D
N30    C154    1.430   .     S
N30    Co438   2.101   .     S
N31    C107    1.335   .     D
N31    C155    1.430   .     S
N31    Co439   2.101   .     S
N32    C108    1.335   .     D
N32    C156    1.430   .     S
N32    Co440   2.101   .     S
C33    C65     1.379   .     D
C33    C97     1.442   .     S
C33    N441    1.350   .     S
C34    C66     1.379   .     S
C34    C98     1.442   .     S
C34    N442    1.350   1_565 D
C35    C67     1.379   .     D
C35    C99     1.442   .     S
C35    N443    1.350   .     S
C36    C68     1.379   .     S
C36    C100    1.442   .     S
C36    N444    1.350   1_565 D
C37    C69     1.379   .     S
C37    C101    1.442   .     S
C37    N441    1.350   .     D
C38    C70     1.379   .     D
C38    C102    1.442   .     S
C38    N442    1.350   .     S
C39    C71     1.379   .     S
C39    C103    1.442   .     S
C39    N443    1.350   1_655 D
C40    C72     1.379   .     D
C40    C104    1.442   .     S
C40    N444    1.350   1_655 S
C41    C73     1.379   1_556 D
C41    C105    1.442   .     S
C41    N445    1.350   .     S
C42    C74     1.379   .     D
C42    C106    1.442   .     S
C42    N446    1.350   .     S
C43    C75     1.379   .     D
C43    C107    1.442   .     S
C43    N447    1.350   .     S
C44    C76     1.379   1_556 D
C44    C108    1.442   .     S
C44    N448    1.350   .     S
C45    C77     1.379   1_556 S
C45    C109    1.442   .     S
C45    N445    1.350   .     D
C46    C78     1.379   .     S
C46    C110    1.442   .     S
C46    N446    1.350   .     D
C47    C79     1.379   .     S
C47    C111    1.442   .     S
C47    N447    1.350   .     D
C48    C80     1.379   1_556 S
C48    C112    1.442   .     S
C48    N448    1.350   .     D
C49    C81     1.379   .     D
C49    C113    1.467   .     S
C49    N449    1.350   .     S
C50    C82     1.379   .     S
C50    C114    1.467   .     S
C50    N450    1.350   .     D
C51    C83     1.379   .     S
C51    C115    1.467   .     S
C51    N451    1.350   .     D
C52    C84     1.379   .     D
C52    C116    1.467   .     S
C52    N452    1.350   .     S
C53    C85     1.379   .     S
C53    C117    1.467   .     S
C53    N449    1.350   .     D
C54    C86     1.379   .     D
C54    C118    1.467   .     S
C54    N450    1.350   1_565 S
C55    C87     1.379   .     D
C55    C119    1.467   .     S
C55    N451    1.350   1_655 S
C56    C88     1.379   .     S
C56    C120    1.467   .     S
C56    N452    1.350   1_665 D
C57    C89     1.379   .     D
C57    C121    1.467   .     S
C57    N453    1.350   .     S
C58    C90     1.379   1_554 S
C58    C122    1.467   .     S
C58    N454    1.350   .     D
C59    C91     1.379   1_554 S
C59    C123    1.467   .     S
C59    N455    1.350   .     D
C60    C92     1.379   .     D
C60    C124    1.467   .     S
C60    N456    1.350   .     S
C61    C93     1.379   .     S
C61    C125    1.467   .     S
C61    N453    1.350   .     D
C62    C94     1.379   1_554 D
C62    C126    1.467   .     S
C62    N454    1.350   .     S
C63    C95     1.379   1_554 D
C63    C127    1.467   .     S
C63    N455    1.350   .     S
C64    C96     1.379   .     S
C64    C128    1.467   .     S
C64    N456    1.350   .     D
C65    H225    1.139   .     S
C65    C465    1.365   .     S
C66    H226    1.139   .     S
C66    C466    1.365   1_565 D
C67    H227    1.139   .     S
C67    C467    1.365   .     S
C68    H228    1.139   .     S
C68    C468    1.365   1_565 D
C69    H229    1.139   .     S
C69    C465    1.365   .     D
C70    H230    1.139   .     S
C70    C466    1.365   .     S
C71    H231    1.139   .     S
C71    C467    1.365   1_655 D
C72    H232    1.139   .     S
C72    C468    1.365   1_655 S
C73    C41     1.379   1_554 D
C73    H233    1.139   .     S
C73    C469    1.365   .     S
C74    H234    1.139   .     S
C74    C470    1.365   .     S
C75    H235    1.139   .     S
C75    C471    1.365   .     S
C76    C44     1.379   1_554 D
C76    H236    1.139   .     S
C76    C472    1.365   .     S
C77    C45     1.379   1_554 S
C77    H237    1.139   .     S
C77    C469    1.365   .     D
C78    H238    1.139   .     S
C78    C470    1.365   .     D
C79    H239    1.139   .     S
C79    C471    1.365   .     D
C80    C48     1.379   1_554 S
C80    H240    1.139   .     S
C80    C472    1.365   .     D
C81    H241    1.009   .     S
C81    C457    1.365   .     S
C82    H242    1.009   .     S
C82    C458    1.365   .     D
C83    H243    1.009   .     S
C83    C459    1.365   .     D
C84    H244    1.009   .     S
C84    C460    1.365   .     S
C85    H245    1.009   .     S
C85    C457    1.365   .     D
C86    H246    1.009   .     S
C86    C458    1.365   1_565 S
C87    H247    1.009   .     S
C87    C459    1.365   1_655 S
C88    H248    1.009   .     S
C88    C460    1.365   1_665 D
C89    H249    1.009   .     S
C89    C461    1.365   .     S
C90    C58     1.379   1_556 S
C90    H250    1.009   .     S
C90    C462    1.365   .     D
C91    C59     1.379   1_556 S
C91    H251    1.009   .     S
C91    C463    1.365   .     D
C92    H252    1.009   .     S
C92    C464    1.365   .     S
C93    H253    1.009   .     S
C93    C461    1.365   .     D
C94    C62     1.379   1_556 D
C94    H254    1.009   .     S
C94    C462    1.365   .     S
C95    C63     1.379   1_556 D
C95    H255    1.009   .     S
C95    C463    1.365   .     S
C96    H256    1.009   .     S
C96    C464    1.365   .     D
C97    H405    1.139   .     S
C98    H406    1.139   .     S
C99    H407    1.139   .     S
C100   H408    1.139   .     S
C101   H401    1.139   .     S
C102   H402    1.139   .     S
C103   H403    1.139   .     S
C104   H404    1.139   .     S
C105   H413    1.139   .     S
C106   H414    1.139   .     S
C107   H415    1.139   .     S
C108   H416    1.139   .     S
C109   H409    1.139   .     S
C110   H410    1.139   .     S
C111   H411    1.139   .     S
C112   H412    1.139   .     S
C113   H417    1.139   .     S
C114   H418    1.139   .     S
C115   H419    1.139   .     S
C116   H420    1.139   .     S
C117   H421    1.139   .     S
C118   H422    1.139   .     S
C119   H423    1.139   .     S
C120   H424    1.139   .     S
C121   H425    1.139   .     S
C122   H426    1.139   .     S
C123   H427    1.139   .     S
C124   H428    1.139   .     S
C125   H429    1.139   .     S
C126   H430    1.139   .     S
C127   H431    1.139   .     S
C128   H432    1.139   .     S
C129   C197    1.371   .     S
C129   C213    1.334   .     D
C130   N6      1.428   1_554 S
C130   C198    1.371   .     D
C130   C214    1.334   .     S
C131   N7      1.428   1_554 S
C131   C199    1.371   .     D
C131   C215    1.334   .     S
C132   C200    1.371   .     D
C132   C216    1.334   .     S
C133   C193    1.371   .     D
C133   C209    1.334   .     S
C134   N2      1.428   1_554 S
C134   C194    1.371   .     D
C134   C210    1.334   .     S
C135   N3      1.428   1_554 S
C135   C195    1.371   .     S
C135   C211    1.334   .     D
C136   C196    1.371   .     D
C136   C212    1.334   .     S
C137   C205    1.371   .     D
C137   C221    1.334   .     S
C138   C206    1.371   .     D
C138   C222    1.334   .     S
C139   C207    1.371   .     D
C139   C223    1.334   .     S
C140   C208    1.371   .     S
C140   C224    1.334   .     D
C141   C201    1.371   .     D
C141   C217    1.334   .     S
C142   C202    1.371   .     S
C142   C218    1.334   .     D
C143   C203    1.371   .     D
C143   C219    1.334   .     S
C144   C204    1.371   .     D
C144   C220    1.334   .     S
C145   C161    1.388   .     D
C145   C177    1.390   .     S
C146   N22     1.430   1_556 S
C146   C162    1.388   .     D
C146   C178    1.390   .     S
C147   N23     1.430   1_556 S
C147   C163    1.388   .     S
C147   C179    1.390   .     D
C148   C164    1.388   .     D
C148   C180    1.390   .     S
C149   C165    1.388   .     D
C149   C181    1.390   .     S
C150   N18     1.430   1_556 S
C150   C166    1.388   .     D
C150   C182    1.390   .     S
C151   N19     1.430   1_556 S
C151   C167    1.388   .     D
C151   C183    1.390   .     S
C152   C168    1.388   .     S
C152   C184    1.390   .     D
C153   C169    1.388   .     D
C153   C185    1.390   .     S
C154   C170    1.388   .     D
C154   C186    1.390   .     S
C155   C171    1.388   .     D
C155   C187    1.390   .     S
C156   C172    1.388   .     S
C156   C188    1.390   .     D
C157   C173    1.388   .     D
C157   C189    1.390   .     S
C158   C174    1.388   .     D
C158   C190    1.390   .     S
C159   C175    1.388   .     S
C159   C191    1.390   .     D
C160   C176    1.388   .     D
C160   C192    1.390   .     S
C161   C206    1.362   .     S
C161   H257    1.138   .     S
C162   C205    1.362   .     S
C162   H258    1.138   .     S
C163   C208    1.362   .     D
C163   H259    1.138   .     S
C164   C207    1.362   .     S
C164   H260    1.138   .     S
C165   C203    1.362   .     S
C165   H261    1.138   .     S
C166   C204    1.362   .     S
C166   H262    1.138   .     S
C167   C201    1.362   .     S
C167   H263    1.138   .     S
C168   C202    1.362   .     D
C168   H264    1.138   .     S
C169   C200    1.362   .     S
C169   H265    1.138   .     S
C170   C199    1.362   .     S
C170   H266    1.138   .     S
C171   C198    1.362   .     S
C171   H267    1.138   .     S
C172   C197    1.362   .     D
C172   H268    1.138   .     S
C173   C193    1.362   .     S
C173   H269    1.138   .     S
C174   C194    1.362   .     S
C174   H270    1.138   .     S
C175   C195    1.362   .     D
C175   H271    1.138   .     S
C176   C196    1.362   .     S
C176   H272    1.138   .     S
C177   C222    1.361   .     D
C177   H273    1.139   .     S
C178   C221    1.361   .     D
C178   H274    1.139   1_556 S
C179   C224    1.361   .     S
C179   H275    1.139   1_556 S
C180   C223    1.361   .     D
C180   H276    1.139   .     S
C181   C219    1.361   .     D
C181   H277    1.139   .     S
C182   C220    1.361   .     D
C182   H278    1.139   1_556 S
C183   C217    1.361   .     D
C183   H279    1.139   1_556 S
C184   C218    1.361   .     S
C184   H280    1.139   .     S
C185   C216    1.361   .     D
C185   H281    1.139   .     S
C186   C215    1.361   .     D
C186   H282    1.139   .     S
C187   C214    1.361   .     D
C187   H283    1.139   .     S
C188   C213    1.361   .     S
C188   H284    1.139   .     S
C189   C209    1.361   .     D
C189   H285    1.139   .     S
C190   C210    1.361   .     D
C190   H286    1.139   .     S
C191   C211    1.361   .     S
C191   H287    1.139   .     S
C192   C212    1.361   .     D
C192   H288    1.139   .     S
C193   H289    1.139   .     S
C194   H290    1.139   1_554 S
C195   H291    1.139   1_554 S
C196   H292    1.139   .     S
C197   H293    1.139   .     S
C198   H294    1.139   1_554 S
C199   H295    1.139   1_554 S
C200   H296    1.139   .     S
C201   H297    1.139   .     S
C202   H298    1.139   .     S
C203   H299    1.139   .     S
C204   H300    1.139   .     S
C205   H301    1.139   .     S
C206   H302    1.139   .     S
C207   H303    1.139   .     S
C208   H304    1.139   .     S
C209   H305    1.138   .     S
C210   H306    1.138   .     S
C211   H307    1.138   .     S
C212   H308    1.138   .     S
C213   H309    1.138   .     S
C214   H310    1.138   .     S
C215   H311    1.138   .     S
C216   H312    1.138   .     S
C217   H313    1.138   .     S
C218   H314    1.138   .     S
C219   H315    1.138   .     S
C220   H316    1.138   .     S
C221   H317    1.138   .     S
C222   H318    1.138   .     S
C223   H319    1.138   .     S
C224   H320    1.138   .     S
H274   C178    1.139   1_554 S
H275   C179    1.139   1_554 S
H278   C182    1.139   1_554 S
H279   C183    1.139   1_554 S
H290   C194    1.139   1_556 S
H291   C195    1.139   1_556 S
H294   C198    1.139   1_556 S
H295   C199    1.139   1_556 S
B321   F337    1.419   .     S
B321   F353    1.415   .     S
B321   F369    1.418   .     S
B321   F385    1.420   .     S
B322   F338    1.419   .     S
B322   F354    1.415   .     S
B322   F370    1.418   .     S
B322   F386    1.420   .     S
B323   F339    1.419   .     S
B323   F355    1.415   .     S
B323   F371    1.418   .     S
B323   F387    1.420   .     S
B324   F340    1.419   .     S
B324   F356    1.415   .     S
B324   F372    1.418   .     S
B324   F388    1.420   .     S
B325   F341    1.419   .     S
B325   F357    1.415   .     S
B325   F373    1.418   .     S
B325   F389    1.420   .     S
B326   F342    1.419   .     S
B326   F358    1.415   .     S
B326   F374    1.418   .     S
B326   F390    1.420   .     S
B327   F343    1.419   .     S
B327   F359    1.415   .     S
B327   F375    1.418   .     S
B327   F391    1.420   .     S
B328   F344    1.419   .     S
B328   F360    1.415   .     S
B328   F376    1.418   .     S
B328   F392    1.420   .     S
B329   F345    1.419   .     S
B329   F361    1.415   .     S
B329   F377    1.418   .     S
B329   F393    1.420   .     S
B330   F346    1.419   .     S
B330   F362    1.415   .     S
B330   F378    1.418   .     S
B330   F394    1.420   .     S
B331   F347    1.419   .     S
B331   F363    1.415   .     S
B331   F379    1.418   .     S
B331   F395    1.420   .     S
B332   F348    1.419   .     S
B332   F364    1.415   .     S
B332   F380    1.418   .     S
B332   F396    1.420   .     S
B333   F349    1.419   .     S
B333   F365    1.415   .     S
B333   F381    1.418   .     S
B333   F397    1.420   .     S
B334   F350    1.419   .     S
B334   F366    1.415   .     S
B334   F382    1.418   .     S
B334   F398    1.420   .     S
B335   F351    1.419   .     S
B335   F367    1.415   .     S
B335   F383    1.418   .     S
B335   F399    1.420   .     S
B336   F352    1.419   .     S
B336   F368    1.415   .     S
B336   F384    1.418   .     S
B336   F400    1.420   .     S
Co433  N441    1.961   .     S
Co433  N449    1.997   .     S
Co434  N18     2.101   1_556 S
Co434  N6      2.100   1_545 S
Co434  N22     2.101   1_546 S
Co434  N442    1.961   1_556 S
Co434  N450    1.997   .     S
Co435  N19     2.101   1_456 S
Co435  N23     2.101   1_556 S
Co435  N7      2.100   1_455 S
Co435  N443    1.961   1_556 S
Co435  N451    1.997   .     S
Co436  N20     2.101   1_455 S
Co436  N24     2.101   1_545 S
Co436  N8      2.100   1_445 S
Co436  N444    1.961   .     S
Co436  N452    1.997   .     S
Co437  N445    1.961   .     S
Co437  N453    1.997   .     S
Co438  N446    1.961   .     S
Co438  N454    1.997   .     S
Co439  N447    1.961   .     S
Co439  N455    1.997   .     S
Co440  N448    1.961   .     S
Co440  N456    1.997   .     S
N442   C34     1.350   1_545 D
N442   Co434   1.961   1_554 S
N443   C39     1.350   1_455 D
N443   Co435   1.961   1_554 S
N444   C40     1.350   1_455 S
N444   C36     1.350   1_545 D
N450   C54     1.350   1_545 S
N451   C55     1.350   1_455 S
N452   C56     1.350   1_445 D
C457   H473    0.899   .     S
C458   C86     1.365   1_545 S
C458   H474    0.899   .     S
C459   C87     1.365   1_455 S
C459   H475    0.899   .     S
C460   C88     1.365   1_445 D
C460   H476    0.899   .     S
C461   H477    0.899   .     S
C462   H478    0.899   .     S
C463   H479    0.899   .     S
C464   H480    0.899   .     S
C465   H481    0.899   .     S
C466   C66     1.365   1_545 D
C466   H482    0.899   .     S
C467   C71     1.365   1_455 D
C467   H483    0.899   .     S
C468   C72     1.365   1_455 S
C468   C68     1.365   1_545 D
C468   H484    0.899   .     S
C469   H485    0.899   .     S
C470   H486    0.899   .     S
C471   H487    0.899   .     S
C472   H488    0.899   .     S
