data_931
_audit_creation_date              2023-09-08
_audit_creation_method            'Materials Studio'
_symmetry_space_group_name_H-M    'P1'
_symmetry_Int_Tables_number       1
_symmetry_cell_setting            triclinic
loop_
_symmetry_equiv_pos_as_xyz
  x,y,z
_cell_length_a                    46.5335
_cell_length_b                    46.5335
_cell_length_c                    4.7830
_cell_angle_alpha                 90.0000
_cell_angle_beta                  90.0000
_cell_angle_gamma                 120.0000
loop_
_atom_site_label
_atom_site_type_symbol
_atom_site_fract_x
_atom_site_fract_y
_atom_site_fract_z
_atom_site_U_iso_or_equiv
_atom_site_adp_type
_atom_site_occupancy
N1     N     0.36637   0.67786   0.90273   0.00000  Uiso   1.00
C1     C     0.34459   0.64469   0.90409   0.00000  Uiso   1.00
C2     C     0.35684   0.62116   0.86827   0.00000  Uiso   1.00
C3     C     0.38869   0.62936   0.96066   0.00000  Uiso   1.00
C4     C     0.40176   0.60887   0.89609   0.00000  Uiso   1.00
C5     C     0.38343   0.58015   0.73387   0.00000  Uiso   1.00
C6     C     0.35118   0.57142   0.64964   0.00000  Uiso   1.00
C7     C     0.33789   0.59158   0.71816   0.00000  Uiso   1.00
C8     C     0.39875   0.55988   0.63605   0.00000  Uiso   1.00
N2     N     0.43208   0.58163   0.52389   0.00000  Uiso   1.00
C9     C     0.45636   0.57126   0.51239   0.00000  Uiso   1.00
C10    C     0.48593   0.59024   0.36513   0.00000  Uiso   1.00
C11    C     0.59492   0.49694   0.57423   0.00000  Uiso   1.00
H1     H     0.49045   0.61263   0.25903   0.00000  Uiso   1.00
C12    C     0.40030   0.53859   0.87385   0.00000  Uiso   1.00
H2     H     0.40375   0.65198   1.07741   0.00000  Uiso   1.00
H3     H     0.42675   0.61619   0.96176   0.00000  Uiso   1.00
H4     H     0.33654   0.54939   0.52486   0.00000  Uiso   1.00
H5     H     0.31338   0.58481   0.64217   0.00000  Uiso   1.00
C13    C     0.62954   0.51515   0.69516   0.00000  Uiso   1.00
C14    C     0.54269   0.49485   0.46210   0.00000  Uiso   1.00
C15    C     0.57434   0.51102   0.58718   0.00000  Uiso   1.00
C16    C     0.53182   0.46433   0.32902   0.00000  Uiso   1.00
H6     H     0.50739   0.45139   0.23693   0.00000  Uiso   1.00
H7     H     0.58283   0.53407   0.69943   0.00000  Uiso   1.00
H8     H     0.42155   0.50785   0.96755   0.00000  Uiso   1.00
O1     O     0.39706   0.49529   0.57355   0.00000  Uiso   1.00
C17    C     0.37835   0.46307   0.68777   0.00000  Uiso   1.00
C18    C     0.39714   0.44384   0.65867   0.00000  Uiso   1.00
H9     H     0.35506   0.44991   0.56438   0.00000  Uiso   1.00
H10    H     0.37018   0.46304   0.90719   0.00000  Uiso   1.00
H11    H     0.41965   0.45803   0.52723   0.00000  Uiso   1.00
H12    H     0.38064   0.41998   0.55012   0.00000  Uiso   1.00
N3     N     0.40647   0.43747   0.93528   0.00000  Uiso   1.00
C19    C     0.41650   0.41210   0.92569   0.00000  Uiso   1.00
H13    H     0.42600   0.45957   1.01516   0.00000  Uiso   1.00
C20    C     0.45089   0.42505   0.79070   0.00000  Uiso   1.00
H14    H     0.39751   0.38984   0.81247   0.00000  Uiso   1.00
H15    H     0.41710   0.40429   1.14396   0.00000  Uiso   1.00
H16    H     0.44943   0.42792   0.56164   0.00000  Uiso   1.00
C21    C     0.46583   0.40266   0.84744   0.00000  Uiso   1.00
H17    H     0.46821   0.45000   0.87778   0.00000  Uiso   1.00
H18    H     0.49286   0.41819   0.80325   0.00000  Uiso   1.00
N4     N     0.45084   0.37286   0.66615   0.00000  Uiso   1.00
H19    H     0.46354   0.39582   1.07213   0.00000  Uiso   1.00
C22    C     0.47547   0.36447   0.55421   0.00000  Uiso   1.00
C23    C     0.42135   0.34397   0.78931   0.00000  Uiso   1.00
H20    H     0.42712   0.32520   0.87276   0.00000  Uiso   1.00
C24    C     0.39418   0.32767   0.56665   0.00000  Uiso   1.00
H21    H     0.41155   0.35149   0.96861   0.00000  Uiso   1.00
H22    H     0.40295   0.31713   0.40104   0.00000  Uiso   1.00
H23    H     0.38966   0.34667   0.46782   0.00000  Uiso   1.00
C25    C     0.36156   0.29960   0.68553   0.00000  Uiso   1.00
H24    H     0.36626   0.28307   0.82285   0.00000  Uiso   1.00
H25    H     0.34593   0.28444   0.50764   0.00000  Uiso   1.00
N5     N     0.34364   0.31294   0.83862   0.00000  Uiso   1.00
H26    H     0.35469   0.32099   1.03461   0.00000  Uiso   1.00
H27    H     0.31965   0.29333   0.87688   0.00000  Uiso   1.00
H28    H     0.46292   0.34278   0.41155   0.00000  Uiso   1.00
C26    C     0.49469   0.35718   0.78043   0.00000  Uiso   1.00
H29    H     0.49349   0.38547   0.42372   0.00000  Uiso   1.00
C27    C     0.52278   0.35354   0.64844   0.00000  Uiso   1.00
H30    H     0.47782   0.33387   0.89269   0.00000  Uiso   1.00
H31    H     0.50574   0.37757   0.93549   0.00000  Uiso   1.00
H32    H     0.51254   0.33408   0.48369   0.00000  Uiso   1.00
N6     N     0.53978   0.34450   0.85759   0.00000  Uiso   1.00
H33    H     0.54109   0.37734   0.54889   0.00000  Uiso   1.00
H34    H     0.52273   0.32162   0.94505   0.00000  Uiso   1.00
H35    H     0.54830   0.36213   1.01809   0.00000  Uiso   1.00
H36    H     0.66632   0.50366   0.86659   0.00000  Uiso   1.00
H37    H     0.62402   0.47531   0.96017   0.00000  Uiso   1.00
H38    H     0.51767   0.17252   0.38016   0.00000  Uiso   1.00
H39    H     0.57149   0.16636   0.32384   0.00000  Uiso   1.00
C28    C     0.52954   0.54075   0.46758   0.00000  Uiso   1.00
N7     N     0.63578   0.32936   0.80780   0.00000  Uiso   1.00
C29    C     0.66267   0.36039   0.80914   0.00000  Uiso   1.00
C30    C     0.65820   0.38943   0.77536   0.00000  Uiso   1.00
C31    C     0.62910   0.38831   0.86991   0.00000  Uiso   1.00
C32    C     0.62303   0.41410   0.80681   0.00000  Uiso   1.00
C33    C     0.64567   0.44121   0.64475   0.00000  Uiso   1.00
C34    C     0.67530   0.44287   0.55866   0.00000  Uiso   1.00
C35    C     0.68165   0.41733   0.62537   0.00000  Uiso   1.00
C36    C     0.63726   0.46706   0.54765   0.00000  Uiso   1.00
N8     N     0.60357   0.45083   0.43231   0.00000  Uiso   1.00
C37    C     0.58347   0.46622   0.43900   0.00000  Uiso   1.00
C38    C     0.55211   0.45030   0.31473   0.00000  Uiso   1.00
C39    C     0.45038   0.54180   0.64555   0.00000  Uiso   1.00
H40    H     0.54338   0.42691   0.20780   0.00000  Uiso   1.00
C40    C     0.64039   0.49032   0.78769   0.00000  Uiso   1.00
H41    H     0.61072   0.36713   0.98692   0.00000  Uiso   1.00
H42    H     0.59994   0.41224   0.87282   0.00000  Uiso   1.00
H43    H     0.69315   0.46350   0.43347   0.00000  Uiso   1.00
H44    H     0.70417   0.41869   0.54797   0.00000  Uiso   1.00
C41    C     0.41711   0.51902   0.77753   0.00000  Uiso   1.00
C42    C     0.50427   0.55122   0.48622   0.00000  Uiso   1.00
C43    C     0.47454   0.53221   0.63497   0.00000  Uiso   1.00
C44    C     0.50963   0.58031   0.35130   0.00000  Uiso   1.00
H45    H     0.53189   0.59510   0.23093   0.00000  Uiso   1.00
H46    H     0.46997   0.50992   0.74361   0.00000  Uiso   1.00
H47    H     0.62883   0.52875   0.88487   0.00000  Uiso   1.00
O2     O     0.65133   0.53660   0.48604   0.00000  Uiso   1.00
C45    C     0.67778   0.56578   0.60346   0.00000  Uiso   1.00
C46    C     0.66820   0.59286   0.63391   0.00000  Uiso   1.00
H48    H     0.69912   0.57489   0.45716   0.00000  Uiso   1.00
H49    H     0.68690   0.56105   0.80418   0.00000  Uiso   1.00
H50    H     0.64219   0.58318   0.56350   0.00000  Uiso   1.00
H51    H     0.68477   0.61411   0.49796   0.00000  Uiso   1.00
N9     N     0.67226   0.60451   0.92357   0.00000  Uiso   1.00
C47    C     0.66188   0.62944   0.95971   0.00000  Uiso   1.00
H52    H     0.65810   0.58421   1.05394   0.00000  Uiso   1.00
C48    C     0.62405   0.61342   0.99701   0.00000  Uiso   1.00
H53    H     0.67032   0.64712   0.78091   0.00000  Uiso   1.00
H54    H     0.67452   0.64428   1.14861   0.00000  Uiso   1.00
H55    H     0.61125   0.60313   0.79491   0.00000  Uiso   1.00
C49    C     0.61450   0.63834   1.10770   0.00000  Uiso   1.00
H56    H     0.61512   0.59267   1.14904   0.00000  Uiso   1.00
H57    H     0.58784   0.62454   1.16422   0.00000  Uiso   1.00
N10    N     0.62167   0.66413   0.89439   0.00000  Uiso   1.00
H58    H     0.62798   0.64895   1.30732   0.00000  Uiso   1.00
C50    C     0.59121   0.65968   0.75495   0.00000  Uiso   1.00
C51    C     0.64460   0.69799   0.99910   0.00000  Uiso   1.00
H59    H     0.63228   0.70578   1.15600   0.00000  Uiso   1.00
C52    C     0.65913   0.72342   0.76041   0.00000  Uiso   1.00
H60    H     0.66576   0.69784   1.10541   0.00000  Uiso   1.00
H61    H     0.63896   0.72547   0.65562   0.00000  Uiso   1.00
H62    H     0.67099   0.71501   0.60380   0.00000  Uiso   1.00
C53    C     0.68457   0.75817   0.86486   0.00000  Uiso   1.00
H63    H     0.67379   0.76603   1.03613   0.00000  Uiso   1.00
H64    H     0.69066   0.77586   0.68824   0.00000  Uiso   1.00
N11    N     0.71494   0.75922   0.95931   0.00000  Uiso   1.00
H65    H     0.71140   0.75050   1.16507   0.00000  Uiso   1.00
H66    H     0.73364   0.78412   0.96855   0.00000  Uiso   1.00
H67    H     0.59809   0.67326   0.55385   0.00000  Uiso   1.00
C54    C     0.57105   0.67133   0.92923   0.00000  Uiso   1.00
H68    H     0.57509   0.63307   0.69835   0.00000  Uiso   1.00
C55    C     0.53755   0.66091   0.78923   0.00000  Uiso   1.00
H69    H     0.58514   0.69880   0.94747   0.00000  Uiso   1.00
H70    H     0.56640   0.66039   1.14151   0.00000  Uiso   1.00
H71    H     0.54145   0.66803   0.56525   0.00000  Uiso   1.00
N12    N     0.52054   0.67655   0.92197   0.00000  Uiso   1.00
H72    H     0.52154   0.63354   0.80225   0.00000  Uiso   1.00
H73    H     0.53537   0.70231   0.90353   0.00000  Uiso   1.00
H74    H     0.51765   0.67078   1.13485   0.00000  Uiso   1.00
H75    H     0.37491   0.52118   0.95238   0.00000  Uiso   1.00
H76    H     0.41503   0.55508   1.04691   0.00000  Uiso   1.00
H77    H     0.45711   0.84029   0.46640   0.00000  Uiso   1.00
H78    H     0.39660   0.83355   0.42042   0.00000  Uiso   1.00
N13    N     0.52031   0.50772   0.47833   0.00000  Uiso   1.00
O3     O     0.55852   0.56179   0.43169   0.00000  Uiso   1.00
H79    H     0.49503   0.49023   0.46844   0.00000  Uiso   1.00
N14    N     0.32214   0.68851   0.90273   0.00000  Uiso   1.00
C56    C     0.35531   0.69990   0.90409   0.00000  Uiso   1.00
C57    C     0.37884   0.73568   0.86827   0.00000  Uiso   1.00
C58    C     0.37064   0.75933   0.96066   0.00000  Uiso   1.00
C59    C     0.39113   0.79289   0.89609   0.00000  Uiso   1.00
C60    C     0.41985   0.80328   0.73387   0.00000  Uiso   1.00
C61    C     0.42858   0.77976   0.64964   0.00000  Uiso   1.00
C62    C     0.40842   0.74631   0.71816   0.00000  Uiso   1.00
C63    C     0.44012   0.83887   0.63605   0.00000  Uiso   1.00
N15    N     0.41837   0.85045   0.52389   0.00000  Uiso   1.00
C64    C     0.42874   0.88510   0.51239   0.00000  Uiso   1.00
C65    C     0.40976   0.89569   0.36513   0.00000  Uiso   1.00
C66    C     0.50306   0.09798   0.57423   0.00000  Uiso   1.00
H80    H     0.38737   0.87782   0.25903   0.00000  Uiso   1.00
C67    C     0.46141   0.86171   0.87385   0.00000  Uiso   1.00
H81    H     0.34802   0.75177   1.07741   0.00000  Uiso   1.00
H82    H     0.38381   0.81056   0.96176   0.00000  Uiso   1.00
H83    H     0.45061   0.78715   0.52486   0.00000  Uiso   1.00
H84    H     0.41519   0.72857   0.64217   0.00000  Uiso   1.00
C68    C     0.48485   0.11439   0.69516   0.00000  Uiso   1.00
C69    C     0.50515   0.04784   0.46210   0.00000  Uiso   1.00
C70    C     0.48898   0.06332   0.58718   0.00000  Uiso   1.00
C71    C     0.53567   0.06749   0.32902   0.00000  Uiso   1.00
H85    H     0.54861   0.05600   0.23693   0.00000  Uiso   1.00
H86    H     0.46593   0.04876   0.69943   0.00000  Uiso   1.00
H87    H     0.49215   0.91370   0.96755   0.00000  Uiso   1.00
O4     O     0.50471   0.90177   0.57355   0.00000  Uiso   1.00
C72    C     0.53693   0.91528   0.68777   0.00000  Uiso   1.00
C73    C     0.55616   0.95330   0.65867   0.00000  Uiso   1.00
H88    H     0.55009   0.90515   0.56438   0.00000  Uiso   1.00
H89    H     0.53696   0.90714   0.90719   0.00000  Uiso   1.00
H90    H     0.54197   0.96162   0.52723   0.00000  Uiso   1.00
H91    H     0.58002   0.96066   0.55012   0.00000  Uiso   1.00
N16    N     0.56253   0.96900   0.93528   0.00000  Uiso   1.00
C74    C     0.58790   0.00440   0.92569   0.00000  Uiso   1.00
H92    H     0.54043   0.96643   1.01516   0.00000  Uiso   1.00
C75    C     0.57495   0.02584   0.79070   0.00000  Uiso   1.00
H93    H     0.61016   0.00767   0.81247   0.00000  Uiso   1.00
H94    H     0.59571   0.01281   1.14396   0.00000  Uiso   1.00
H95    H     0.57208   0.02151   0.56164   0.00000  Uiso   1.00
C76    C     0.59734   0.06317   0.84744   0.00000  Uiso   1.00
H96    H     0.55000   0.01821   0.87778   0.00000  Uiso   1.00
H97    H     0.58181   0.07467   0.80325   0.00000  Uiso   1.00
N17    N     0.62714   0.07798   0.66615   0.00000  Uiso   1.00
H98    H     0.60418   0.06772   1.07213   0.00000  Uiso   1.00
C77    C     0.63553   0.11100   0.55421   0.00000  Uiso   1.00
C78    C     0.65603   0.07738   0.78931   0.00000  Uiso   1.00
H99    H     0.67480   0.10192   0.87276   0.00000  Uiso   1.00
C79    C     0.67233   0.06651   0.56665   0.00000  Uiso   1.00
H100   H     0.64851   0.06006   0.96861   0.00000  Uiso   1.00
H101   H     0.68287   0.08582   0.40104   0.00000  Uiso   1.00
H102   H     0.65333   0.04299   0.46782   0.00000  Uiso   1.00
C80    C     0.70040   0.06196   0.68553   0.00000  Uiso   1.00
H103   H     0.71693   0.08319   0.82285   0.00000  Uiso   1.00
H104   H     0.71556   0.06149   0.50764   0.00000  Uiso   1.00
N18    N     0.68706   0.03070   0.83862   0.00000  Uiso   1.00
H105   H     0.67901   0.03370   1.03461   0.00000  Uiso   1.00
H106   H     0.70667   0.02632   0.87688   0.00000  Uiso   1.00
H107   H     0.65722   0.12014   0.41155   0.00000  Uiso   1.00
C81    C     0.64282   0.13751   0.78043   0.00000  Uiso   1.00
H108   H     0.61453   0.10802   0.42372   0.00000  Uiso   1.00
C82    C     0.64646   0.16924   0.64844   0.00000  Uiso   1.00
H109   H     0.66613   0.14395   0.89269   0.00000  Uiso   1.00
H110   H     0.62243   0.12817   0.93549   0.00000  Uiso   1.00
H111   H     0.66592   0.17846   0.48369   0.00000  Uiso   1.00
N19    N     0.65550   0.19528   0.85759   0.00000  Uiso   1.00
H112   H     0.62266   0.16375   0.54889   0.00000  Uiso   1.00
H113   H     0.67838   0.20111   0.94505   0.00000  Uiso   1.00
H114   H     0.63787   0.18617   1.01809   0.00000  Uiso   1.00
H115   H     0.49634   0.16266   0.86659   0.00000  Uiso   1.00
H116   H     0.52469   0.14871   0.96017   0.00000  Uiso   1.00
H117   H     0.82748   0.34515   0.38016   0.00000  Uiso   1.00
H118   H     0.83364   0.40513   0.32384   0.00000  Uiso   1.00
C83    C     0.45925   0.98879   0.46758   0.00000  Uiso   1.00
N20    N     0.67064   0.30642   0.80780   0.00000  Uiso   1.00
C84    C     0.63961   0.30228   0.80914   0.00000  Uiso   1.00
C85    C     0.61057   0.26877   0.77536   0.00000  Uiso   1.00
C86    C     0.61169   0.24079   0.86991   0.00000  Uiso   1.00
C87    C     0.58590   0.20893   0.80681   0.00000  Uiso   1.00
C88    C     0.55879   0.20446   0.64475   0.00000  Uiso   1.00
C89    C     0.55713   0.23243   0.55866   0.00000  Uiso   1.00
C90    C     0.58267   0.26432   0.62537   0.00000  Uiso   1.00
C91    C     0.53294   0.17020   0.54765   0.00000  Uiso   1.00
N21    N     0.54917   0.15274   0.43231   0.00000  Uiso   1.00
C92    C     0.53378   0.11725   0.43900   0.00000  Uiso   1.00
C93    C     0.54970   0.10181   0.31473   0.00000  Uiso   1.00
C94    C     0.45820   0.90858   0.64555   0.00000  Uiso   1.00
H119   H     0.57309   0.11647   0.20780   0.00000  Uiso   1.00
C95    C     0.50968   0.15007   0.78769   0.00000  Uiso   1.00
H120   H     0.63287   0.24359   0.98692   0.00000  Uiso   1.00
H121   H     0.58776   0.18770   0.87282   0.00000  Uiso   1.00
H122   H     0.53650   0.22965   0.43347   0.00000  Uiso   1.00
H123   H     0.58131   0.28548   0.54797   0.00000  Uiso   1.00
C96    C     0.48098   0.89809   0.77753   0.00000  Uiso   1.00
C97    C     0.44878   0.95305   0.48622   0.00000  Uiso   1.00
C98    C     0.46779   0.94233   0.63497   0.00000  Uiso   1.00
C99    C     0.41969   0.92932   0.35130   0.00000  Uiso   1.00
H124   H     0.40490   0.93679   0.23093   0.00000  Uiso   1.00
H125   H     0.49008   0.96005   0.74361   0.00000  Uiso   1.00
H126   H     0.47125   0.10008   0.88487   0.00000  Uiso   1.00
O5     O     0.46340   0.11473   0.48604   0.00000  Uiso   1.00
C100   C     0.43422   0.11200   0.60346   0.00000  Uiso   1.00
C101   C     0.40714   0.07534   0.63391   0.00000  Uiso   1.00
H127   H     0.42511   0.12423   0.45716   0.00000  Uiso   1.00
H128   H     0.43895   0.12585   0.80418   0.00000  Uiso   1.00
H129   H     0.41682   0.05901   0.56350   0.00000  Uiso   1.00
H130   H     0.38589   0.07066   0.49796   0.00000  Uiso   1.00
N22    N     0.39549   0.06775   0.92357   0.00000  Uiso   1.00
C102   C     0.37056   0.03244   0.95971   0.00000  Uiso   1.00
H131   H     0.41579   0.07389   1.05394   0.00000  Uiso   1.00
C103   C     0.38658   0.01063   0.99701   0.00000  Uiso   1.00
H132   H     0.35288   0.02320   0.78091   0.00000  Uiso   1.00
H133   H     0.35572   0.03024   1.14861   0.00000  Uiso   1.00
H134   H     0.39687   0.00812   0.79491   0.00000  Uiso   1.00
C104   C     0.36166   0.97616   1.10770   0.00000  Uiso   1.00
H135   H     0.40733   0.02245   1.14904   0.00000  Uiso   1.00
H136   H     0.37546   0.96330   1.16422   0.00000  Uiso   1.00
N23    N     0.33587   0.95754   0.89439   0.00000  Uiso   1.00
H137   H     0.35105   0.97903   1.30732   0.00000  Uiso   1.00
C105   C     0.34032   0.93153   0.75495   0.00000  Uiso   1.00
C106   C     0.30201   0.94661   0.99910   0.00000  Uiso   1.00
H138   H     0.29422   0.92650   1.15600   0.00000  Uiso   1.00
C107   C     0.27658   0.93571   0.76041   0.00000  Uiso   1.00
H139   H     0.30216   0.96792   1.10541   0.00000  Uiso   1.00
H140   H     0.27453   0.91349   0.65562   0.00000  Uiso   1.00
H141   H     0.28499   0.95598   0.60380   0.00000  Uiso   1.00
C108   C     0.24183   0.92640   0.86486   0.00000  Uiso   1.00
H142   H     0.23397   0.90776   1.03613   0.00000  Uiso   1.00
H143   H     0.22414   0.91480   0.68824   0.00000  Uiso   1.00
N24    N     0.24078   0.95572   0.95931   0.00000  Uiso   1.00
H144   H     0.24950   0.96090   1.16507   0.00000  Uiso   1.00
H145   H     0.21588   0.94952   0.96855   0.00000  Uiso   1.00
H146   H     0.32674   0.92483   0.55385   0.00000  Uiso   1.00
C109   C     0.32867   0.89972   0.92923   0.00000  Uiso   1.00
H147   H     0.36693   0.94202   0.69835   0.00000  Uiso   1.00
C110   C     0.33909   0.87664   0.78923   0.00000  Uiso   1.00
H148   H     0.30120   0.88634   0.94747   0.00000  Uiso   1.00
H149   H     0.33961   0.90601   1.14151   0.00000  Uiso   1.00
H150   H     0.33197   0.87342   0.56525   0.00000  Uiso   1.00
N25    N     0.32345   0.84399   0.92197   0.00000  Uiso   1.00
H151   H     0.36646   0.88800   0.80225   0.00000  Uiso   1.00
H152   H     0.29769   0.83306   0.90353   0.00000  Uiso   1.00
H153   H     0.32922   0.84687   1.13485   0.00000  Uiso   1.00
H154   H     0.47882   0.85373   0.95238   0.00000  Uiso   1.00
H155   H     0.44492   0.85995   1.04691   0.00000  Uiso   1.00
H156   H     0.15971   0.61682   0.46640   0.00000  Uiso   1.00
H157   H     0.16645   0.56305   0.42042   0.00000  Uiso   1.00
N26    N     0.49228   0.01259   0.47833   0.00000  Uiso   1.00
O6     O     0.43821   0.99673   0.43169   0.00000  Uiso   1.00
H158   H     0.50977   0.00480   0.46844   0.00000  Uiso   1.00
N27    N     0.31149   0.63363   0.90273   0.00000  Uiso   1.00
C111   C     0.30010   0.65541   0.90409   0.00000  Uiso   1.00
C112   C     0.26432   0.64316   0.86827   0.00000  Uiso   1.00
C113   C     0.24067   0.61131   0.96066   0.00000  Uiso   1.00
C114   C     0.20711   0.59824   0.89609   0.00000  Uiso   1.00
C115   C     0.19672   0.61657   0.73387   0.00000  Uiso   1.00
C116   C     0.22024   0.64882   0.64964   0.00000  Uiso   1.00
C117   C     0.25369   0.66211   0.71816   0.00000  Uiso   1.00
C118   C     0.16113   0.60125   0.63605   0.00000  Uiso   1.00
N28    N     0.14955   0.56792   0.52389   0.00000  Uiso   1.00
C119   C     0.11490   0.54364   0.51239   0.00000  Uiso   1.00
C120   C     0.10431   0.51407   0.36513   0.00000  Uiso   1.00
C121   C     0.90202   0.40508   0.57423   0.00000  Uiso   1.00
H159   H     0.12218   0.50955   0.25903   0.00000  Uiso   1.00
C122   C     0.13829   0.59970   0.87385   0.00000  Uiso   1.00
H160   H     0.24823   0.59625   1.07741   0.00000  Uiso   1.00
H161   H     0.18944   0.57325   0.96176   0.00000  Uiso   1.00
H162   H     0.21285   0.66346   0.52486   0.00000  Uiso   1.00
H163   H     0.27143   0.68662   0.64217   0.00000  Uiso   1.00
C123   C     0.88561   0.37046   0.69516   0.00000  Uiso   1.00
C124   C     0.95216   0.45731   0.46210   0.00000  Uiso   1.00
C125   C     0.93668   0.42566   0.58718   0.00000  Uiso   1.00
C126   C     0.93251   0.46818   0.32902   0.00000  Uiso   1.00
H164   H     0.94400   0.49261   0.23693   0.00000  Uiso   1.00
H165   H     0.95124   0.41717   0.69943   0.00000  Uiso   1.00
H166   H     0.08630   0.57845   0.96755   0.00000  Uiso   1.00
O7     O     0.09823   0.60294   0.57355   0.00000  Uiso   1.00
C127   C     0.08472   0.62165   0.68777   0.00000  Uiso   1.00
C128   C     0.04670   0.60286   0.65867   0.00000  Uiso   1.00
H167   H     0.09485   0.64494   0.56438   0.00000  Uiso   1.00
H168   H     0.09286   0.62982   0.90719   0.00000  Uiso   1.00
H169   H     0.03838   0.58035   0.52723   0.00000  Uiso   1.00
H170   H     0.03934   0.61936   0.55012   0.00000  Uiso   1.00
N29    N     0.03100   0.59353   0.93528   0.00000  Uiso   1.00
C129   C     0.99560   0.58350   0.92569   0.00000  Uiso   1.00
H171   H     0.03357   0.57400   1.01516   0.00000  Uiso   1.00
C130   C     0.97416   0.54911   0.79070   0.00000  Uiso   1.00
H172   H     0.99233   0.60249   0.81247   0.00000  Uiso   1.00
H173   H     0.98719   0.58290   1.14396   0.00000  Uiso   1.00
H174   H     0.97849   0.55057   0.56164   0.00000  Uiso   1.00
C131   C     0.93683   0.53417   0.84744   0.00000  Uiso   1.00
H175   H     0.98179   0.53179   0.87778   0.00000  Uiso   1.00
H176   H     0.92533   0.50714   0.80325   0.00000  Uiso   1.00
N30    N     0.92202   0.54916   0.66615   0.00000  Uiso   1.00
H177   H     0.93228   0.53646   1.07213   0.00000  Uiso   1.00
C132   C     0.88900   0.52453   0.55421   0.00000  Uiso   1.00
C133   C     0.92262   0.57865   0.78931   0.00000  Uiso   1.00
H178   H     0.89808   0.57288   0.87276   0.00000  Uiso   1.00
C134   C     0.93349   0.60582   0.56665   0.00000  Uiso   1.00
H179   H     0.93994   0.58845   0.96861   0.00000  Uiso   1.00
H180   H     0.91418   0.59705   0.40104   0.00000  Uiso   1.00
H181   H     0.95701   0.61034   0.46782   0.00000  Uiso   1.00
C135   C     0.93804   0.63844   0.68553   0.00000  Uiso   1.00
H182   H     0.91681   0.63374   0.82285   0.00000  Uiso   1.00
H183   H     0.93851   0.65407   0.50764   0.00000  Uiso   1.00
N31    N     0.96930   0.65636   0.83862   0.00000  Uiso   1.00
H184   H     0.96630   0.64531   1.03461   0.00000  Uiso   1.00
H185   H     0.97368   0.68035   0.87688   0.00000  Uiso   1.00
H186   H     0.87986   0.53708   0.41155   0.00000  Uiso   1.00
C136   C     0.86249   0.50531   0.78043   0.00000  Uiso   1.00
H187   H     0.89198   0.50651   0.42372   0.00000  Uiso   1.00
C137   C     0.83076   0.47722   0.64844   0.00000  Uiso   1.00
H188   H     0.85605   0.52218   0.89269   0.00000  Uiso   1.00
H189   H     0.87183   0.49426   0.93549   0.00000  Uiso   1.00
H190   H     0.82154   0.48746   0.48369   0.00000  Uiso   1.00
N32    N     0.80472   0.46022   0.85759   0.00000  Uiso   1.00
H191   H     0.83625   0.45891   0.54889   0.00000  Uiso   1.00
H192   H     0.79889   0.47727   0.94505   0.00000  Uiso   1.00
H193   H     0.81383   0.45170   1.01809   0.00000  Uiso   1.00
H194   H     0.83734   0.33368   0.86659   0.00000  Uiso   1.00
H195   H     0.85129   0.37598   0.96017   0.00000  Uiso   1.00
H196   H     0.65485   0.48233   0.38016   0.00000  Uiso   1.00
H197   H     0.59487   0.42851   0.32384   0.00000  Uiso   1.00
C138   C     0.01121   0.47046   0.46758   0.00000  Uiso   1.00
N33    N     0.69358   0.36422   0.80780   0.00000  Uiso   1.00
C139   C     0.69772   0.33733   0.80914   0.00000  Uiso   1.00
C140   C     0.73123   0.34180   0.77536   0.00000  Uiso   1.00
C141   C     0.75921   0.37090   0.86991   0.00000  Uiso   1.00
C142   C     0.79107   0.37697   0.80681   0.00000  Uiso   1.00
C143   C     0.79554   0.35433   0.64475   0.00000  Uiso   1.00
C144   C     0.76757   0.32470   0.55866   0.00000  Uiso   1.00
C145   C     0.73568   0.31835   0.62537   0.00000  Uiso   1.00
C146   C     0.82980   0.36274   0.54765   0.00000  Uiso   1.00
N34    N     0.84726   0.39643   0.43231   0.00000  Uiso   1.00
C147   C     0.88275   0.41653   0.43900   0.00000  Uiso   1.00
C148   C     0.89819   0.44789   0.31473   0.00000  Uiso   1.00
C149   C     0.09142   0.54962   0.64555   0.00000  Uiso   1.00
H198   H     0.88353   0.45662   0.20780   0.00000  Uiso   1.00
C150   C     0.84993   0.35961   0.78769   0.00000  Uiso   1.00
H199   H     0.75641   0.38928   0.98692   0.00000  Uiso   1.00
H200   H     0.81230   0.40006   0.87282   0.00000  Uiso   1.00
H201   H     0.77035   0.30685   0.43347   0.00000  Uiso   1.00
H202   H     0.71452   0.29583   0.54797   0.00000  Uiso   1.00
C151   C     0.10191   0.58289   0.77753   0.00000  Uiso   1.00
C152   C     0.04695   0.49573   0.48622   0.00000  Uiso   1.00
C153   C     0.05767   0.52546   0.63497   0.00000  Uiso   1.00
C154   C     0.07068   0.49037   0.35130   0.00000  Uiso   1.00
H203   H     0.06321   0.46811   0.23093   0.00000  Uiso   1.00
H204   H     0.03995   0.53003   0.74361   0.00000  Uiso   1.00
H205   H     0.89992   0.37117   0.88487   0.00000  Uiso   1.00
O8     O     0.88527   0.34867   0.48604   0.00000  Uiso   1.00
C155   C     0.88800   0.32222   0.60346   0.00000  Uiso   1.00
C156   C     0.92466   0.33180   0.63391   0.00000  Uiso   1.00
H206   H     0.87577   0.30088   0.45716   0.00000  Uiso   1.00
H207   H     0.87415   0.31310   0.80418   0.00000  Uiso   1.00
H208   H     0.94099   0.35781   0.56350   0.00000  Uiso   1.00
H209   H     0.92934   0.31523   0.49796   0.00000  Uiso   1.00
N35    N     0.93225   0.32774   0.92357   0.00000  Uiso   1.00
C157   C     0.96756   0.33812   0.95971   0.00000  Uiso   1.00
H210   H     0.92611   0.34190   1.05394   0.00000  Uiso   1.00
C158   C     0.98937   0.37595   0.99701   0.00000  Uiso   1.00
H211   H     0.97680   0.32968   0.78091   0.00000  Uiso   1.00
H212   H     0.96976   0.32548   1.14861   0.00000  Uiso   1.00
H213   H     0.99188   0.38875   0.79491   0.00000  Uiso   1.00
C159   C     0.02384   0.38550   1.10770   0.00000  Uiso   1.00
H214   H     0.97755   0.38488   1.14904   0.00000  Uiso   1.00
H215   H     0.03670   0.41216   1.16422   0.00000  Uiso   1.00
N36    N     0.04246   0.37833   0.89439   0.00000  Uiso   1.00
H216   H     0.02097   0.37202   1.30732   0.00000  Uiso   1.00
C160   C     0.06847   0.40879   0.75495   0.00000  Uiso   1.00
C161   C     0.05339   0.35540   0.99910   0.00000  Uiso   1.00
H217   H     0.07350   0.36772   1.15600   0.00000  Uiso   1.00
C162   C     0.06429   0.34087   0.76041   0.00000  Uiso   1.00
H218   H     0.03208   0.33424   1.10541   0.00000  Uiso   1.00
H219   H     0.08651   0.36104   0.65562   0.00000  Uiso   1.00
H220   H     0.04402   0.32901   0.60380   0.00000  Uiso   1.00
C163   C     0.07360   0.31543   0.86486   0.00000  Uiso   1.00
H221   H     0.09224   0.32621   1.03613   0.00000  Uiso   1.00
H222   H     0.08520   0.30934   0.68824   0.00000  Uiso   1.00
N37    N     0.04428   0.28506   0.95931   0.00000  Uiso   1.00
H223   H     0.03910   0.28860   1.16507   0.00000  Uiso   1.00
H224   H     0.05048   0.26636   0.96855   0.00000  Uiso   1.00
H225   H     0.07517   0.40191   0.55385   0.00000  Uiso   1.00
C164   C     0.10028   0.42895   0.92923   0.00000  Uiso   1.00
H226   H     0.05798   0.42491   0.69835   0.00000  Uiso   1.00
C165   C     0.12336   0.46245   0.78923   0.00000  Uiso   1.00
H227   H     0.11366   0.41486   0.94747   0.00000  Uiso   1.00
H228   H     0.09399   0.43360   1.14151   0.00000  Uiso   1.00
H229   H     0.12658   0.45855   0.56525   0.00000  Uiso   1.00
N38    N     0.15601   0.47946   0.92197   0.00000  Uiso   1.00
H230   H     0.11200   0.47846   0.80225   0.00000  Uiso   1.00
H231   H     0.16694   0.46463   0.90353   0.00000  Uiso   1.00
H232   H     0.15313   0.48235   1.13485   0.00000  Uiso   1.00
H233   H     0.14627   0.62509   0.95238   0.00000  Uiso   1.00
H234   H     0.14005   0.58497   1.04691   0.00000  Uiso   1.00
H235   H     0.38318   0.54289   0.46640   0.00000  Uiso   1.00
H236   H     0.43695   0.60340   0.42042   0.00000  Uiso   1.00
N39    N     0.98741   0.47969   0.47833   0.00000  Uiso   1.00
O9     O     0.00327   0.44148   0.43169   0.00000  Uiso   1.00
H237   H     0.99520   0.50497   0.46844   0.00000  Uiso   1.00
loop_
_geom_bond_atom_site_label_1
_geom_bond_atom_site_label_2
_geom_bond_distance
_geom_bond_site_symmetry_2
_ccdc_geom_bond_type
N1     C56     1.358   .     D
N1     C1      1.358   .     S
C1     N27     1.358   .     D
C1     C2      1.476   .     S
C2     C3      1.404   .     D
C2     C7      1.405   .     S
C3     H2      1.083   .     S
C3     C4      1.398   .     S
C4     H3      1.082   .     S
C4     C5      1.406   .     D
C5     C6      1.403   .     S
C5     C8      1.513   .     S
C6     C7      1.396   .     D
C6     H4      1.083   .     S
C7     H5      1.083   .     S
C8     H235    1.112   .     S
C8     N2      1.466   .     S
C8     C12     1.534   .     S
N2     H236    1.045   .     S
N2     C9      1.434   .     S
C9     C39     1.407   .     S
C9     C10     1.398   .     D
C10    C44     1.394   .     S
C10    H1      1.081   .     S
C11    C13     1.511   .     S
C11    C15     1.406   .     S
C11    C37     1.409   .     D
C12    H76     1.104   .     S
C12    H75     1.112   .     S
C12    C41     1.538   .     S
C13    O2      1.419   .     S
C13    H47     1.116   .     S
C13    C40     1.539   .     S
C14    N13     1.440   .     S
C14    C15     1.409   .     D
C14    C16     1.400   .     S
C15    H7      1.082   .     S
C16    H6      1.079   .     S
C16    C38     1.392   .     D
H8     C41     1.116   .     S
O1     C17     1.414   .     S
O1     C41     1.418   .     S
C17    H9      1.111   .     S
C17    C18     1.539   .     S
C17    H10     1.116   .     S
C18    H11     1.112   .     S
C18    H12     1.113   .     S
C18    N3      1.468   .     S
N3     C19     1.471   .     S
N3     H13     1.046   .     S
C19    C20     1.542   .     S
C19    H14     1.110   .     S
C19    H15     1.110   .     S
C20    C21     1.538   .     S
C20    H17     1.111   .     S
C20    H16     1.110   .     S
C21    H19     1.111   .     S
C21    H18     1.114   .     S
C21    N4      1.481   .     S
N4     C22     1.483   .     S
N4     C23     1.481   .     S
C22    H29     1.108   .     S
C22    H28     1.112   .     S
C22    C26     1.546   .     S
C23    H20     1.109   .     S
C23    H21     1.107   .     S
C23    C24     1.533   .     S
C24    H22     1.111   .     S
C24    H23     1.111   .     S
C24    C25     1.533   .     S
C25    H25     1.112   .     S
C25    N5      1.461   .     S
C25    H24     1.113   .     S
N5     H26     1.044   .     S
N5     H27     1.046   .     S
C26    H31     1.108   .     S
C26    H30     1.109   .     S
C26    C27     1.535   .     S
C27    H33     1.112   .     S
C27    H32     1.112   .     S
C27    N6      1.462   .     S
N6     H34     1.046   .     S
N6     H35     1.046   .     S
H36    C40     1.111   .     S
H37    C40     1.103   .     S
H38    C91     1.111   .     S
H39    N21     1.045   .     S
C28    C42     1.484   .     S
C28    O3      1.219   .     D
C28    N13     1.375   .     S
N7     C29     1.358   .     S
N7     C84     1.358   .     D
C29    C30     1.475   .     S
C29    N33     1.358   .     D
C30    C31     1.404   .     D
C30    C35     1.405   .     S
C31    H41     1.083   .     S
C31    C32     1.396   .     S
C32    H42     1.081   .     S
C32    C33     1.405   .     D
C33    C34     1.404   .     S
C33    C36     1.512   .     S
C34    H43     1.083   .     S
C34    C35     1.397   .     D
C35    H44     1.083   .     S
C36    H196    1.111   .     S
C36    N8      1.466   .     S
C36    C40     1.534   .     S
N8     C37     1.435   .     S
N8     H197    1.045   .     S
C37    C38     1.397   .     S
C38    H40     1.081   .     S
C39    C43     1.403   .     D
C39    C41     1.509   .     S
C42    C43     1.407   .     S
C42    C44     1.405   .     D
C43    H46     1.082   .     S
C44    H45     1.079   .     S
O2     C45     1.415   .     S
C45    H48     1.111   .     S
C45    C46     1.539   .     S
C45    H49     1.115   .     S
C46    H50     1.112   .     S
C46    H51     1.110   .     S
C46    N9      1.465   .     S
N9     H52     1.045   .     S
N9     C47     1.473   .     S
C47    H53     1.113   .     S
C47    C48     1.541   .     S
C47    H54     1.110   .     S
C48    H55     1.111   .     S
C48    C49     1.529   .     S
C48    H56     1.110   .     S
C49    N10     1.481   .     S
C49    H57     1.108   .     S
C49    H58     1.113   .     S
N10    C51     1.480   .     S
N10    C50     1.484   .     S
C50    C54     1.542   .     S
C50    H67     1.107   .     S
C50    H68     1.114   .     S
C51    H60     1.111   .     S
C51    C52     1.536   .     S
C51    H59     1.110   .     S
C52    C53     1.533   .     S
C52    H61     1.109   .     S
C52    H62     1.111   .     S
C53    N11     1.461   .     S
C53    H63     1.114   .     S
C53    H64     1.113   .     S
N11    H66     1.046   .     S
N11    H65     1.046   .     S
C54    H69     1.111   .     S
C54    C55     1.535   .     S
C54    H70     1.108   .     S
C55    N12     1.461   .     S
C55    H72     1.110   .     S
C55    H71     1.109   .     S
N12    H73     1.046   .     S
N12    H74     1.044   .     S
H77    C63     1.112   .     S
H78    N15     1.045   .     S
N13    H79     1.045   .     S
N14    C56     1.358   .     S
N14    C111    1.358   .     D
C56    C57     1.476   .     S
C57    C58     1.404   .     D
C57    C62     1.405   .     S
C58    H81     1.083   .     S
C58    C59     1.398   .     S
C59    H82     1.082   .     S
C59    C60     1.406   .     D
C60    C63     1.513   .     S
C60    C61     1.403   .     S
C61    H83     1.083   .     S
C61    C62     1.396   .     D
C62    H84     1.083   .     S
C63    N15     1.466   .     S
C63    C67     1.534   .     S
N15    C64     1.434   .     S
C64    C94     1.407   .     S
C64    C65     1.398   .     D
C65    C99     1.394   .     S
C65    H80     1.081   .     S
C66    C68     1.511   .     S
C66    C92     1.409   .     D
C66    C70     1.406   .     S
C67    H155    1.104   .     S
C67    H154    1.112   .     S
C67    C96     1.538   .     S
C68    O5      1.419   .     S
C68    C95     1.539   .     S
C68    H126    1.116   .     S
C69    C70     1.409   .     D
C69    N26     1.440   .     S
C69    C71     1.400   .     S
C70    H86     1.082   .     S
C71    H85     1.079   .     S
C71    C93     1.392   .     D
H87    C96     1.116   .     S
O4     C72     1.414   .     S
O4     C96     1.418   .     S
C72    H88     1.111   .     S
C72    C73     1.539   .     S
C72    H89     1.116   .     S
C73    H91     1.113   .     S
C73    H90     1.112   .     S
C73    N16     1.468   .     S
N16    H92     1.046   .     S
N16    C74     1.471   1_565 S
C74    H93     1.110   .     S
C74    C75     1.542   .     S
C74    H94     1.110   .     S
C74    N16     1.471   1_545 S
C75    H96     1.111   .     S
C75    C76     1.538   .     S
C75    H95     1.110   .     S
C76    H97     1.114   .     S
C76    H98     1.111   .     S
C76    N17     1.481   .     S
N17    C77     1.483   .     S
N17    C78     1.481   .     S
C77    H107    1.112   .     S
C77    H108    1.108   .     S
C77    C81     1.546   .     S
C78    H100    1.107   .     S
C78    H99     1.109   .     S
C78    C79     1.533   .     S
C79    H101    1.111   .     S
C79    C80     1.533   .     S
C79    H102    1.111   .     S
C80    H104    1.112   .     S
C80    H103    1.113   .     S
C80    N18     1.461   .     S
N18    H105    1.044   .     S
N18    H106    1.046   .     S
C81    H109    1.109   .     S
C81    H110    1.108   .     S
C81    C82     1.535   .     S
C82    H112    1.112   .     S
C82    H111    1.112   .     S
C82    N19     1.462   .     S
N19    H114    1.046   .     S
N19    H113    1.046   .     S
H115   C95     1.111   .     S
H116   C95     1.103   .     S
H117   C146    1.111   .     S
H118   N34     1.045   .     S
C83    O6      1.219   .     D
C83    C97     1.484   .     S
C83    N26     1.375   1_565 S
N20    C84     1.358   .     S
N20    C139    1.358   .     D
C84    C85     1.475   .     S
C85    C86     1.404   .     D
C85    C90     1.405   .     S
C86    H120    1.083   .     S
C86    C87     1.396   .     S
C87    H121    1.081   .     S
C87    C88     1.405   .     D
C88    C89     1.404   .     S
C88    C91     1.512   .     S
C89    H122    1.083   .     S
C89    C90     1.397   .     D
C90    H123    1.083   .     S
C91    N21     1.466   .     S
C91    C95     1.534   .     S
N21    C92     1.435   .     S
C92    C93     1.397   .     S
C93    H119    1.081   .     S
C94    C98     1.403   .     D
C94    C96     1.509   .     S
C97    C98     1.407   .     S
C97    C99     1.405   .     D
C98    H125    1.082   .     S
C99    H124    1.079   .     S
O5     C100    1.415   .     S
C100   H127    1.111   .     S
C100   C101    1.539   .     S
C100   H128    1.115   .     S
C101   H130    1.110   .     S
C101   H129    1.112   .     S
C101   N22     1.465   .     S
N22    H131    1.045   .     S
N22    C102    1.473   .     S
C102   H132    1.113   .     S
C102   C103    1.541   .     S
C102   H133    1.110   .     S
C103   H134    1.111   .     S
C103   H135    1.110   .     S
C103   C104    1.529   1_545 S
C104   N23     1.481   .     S
C104   H137    1.113   .     S
C104   H136    1.108   .     S
C104   C103    1.529   1_565 S
N23    C105    1.484   .     S
N23    C106    1.480   .     S
C105   C109    1.542   .     S
C105   H146    1.107   .     S
C105   H147    1.114   .     S
C106   C107    1.536   .     S
C106   H139    1.111   .     S
C106   H138    1.110   .     S
C107   C108    1.533   .     S
C107   H141    1.111   .     S
C107   H140    1.109   .     S
C108   N24     1.461   .     S
C108   H142    1.114   .     S
C108   H143    1.113   .     S
N24    H145    1.046   .     S
N24    H144    1.046   .     S
C109   H148    1.111   .     S
C109   C110    1.535   .     S
C109   H149    1.108   .     S
C110   N25     1.461   .     S
C110   H151    1.110   .     S
C110   H150    1.109   .     S
N25    H152    1.046   .     S
N25    H153    1.044   .     S
H156   C118    1.112   .     S
H157   N28     1.045   .     S
N26    H158    1.045   .     S
N26    C83     1.375   1_545 S
N27    C111    1.358   .     S
C111   C112    1.476   .     S
C112   C113    1.404   .     S
C112   C117    1.405   .     D
C113   H160    1.083   .     S
C113   C114    1.398   .     D
C114   H161    1.082   .     S
C114   C115    1.406   .     S
C115   C116    1.403   .     D
C115   C118    1.513   .     S
C116   C117    1.396   .     S
C116   H162    1.083   .     S
C117   H163    1.083   .     S
C118   N28     1.466   .     S
C118   C122    1.534   .     S
N28    C119    1.434   .     S
C119   C149    1.407   .     S
C119   C120    1.398   .     D
C120   C154    1.394   .     S
C120   H159    1.081   .     S
C121   C147    1.409   .     D
C121   C125    1.406   .     S
C121   C123    1.511   .     S
C122   C151    1.538   .     S
C122   H234    1.104   .     S
C122   H233    1.112   .     S
C123   O8      1.419   .     S
C123   H205    1.116   .     S
C123   C150    1.539   .     S
C124   N39     1.440   .     S
C124   C125    1.409   .     D
C124   C126    1.400   .     S
C125   H165    1.082   .     S
C126   C148    1.392   .     D
C126   H164    1.079   .     S
H166   C151    1.116   .     S
O7     C127    1.414   .     S
O7     C151    1.418   .     S
C127   H167    1.111   .     S
C127   C128    1.539   .     S
C127   H168    1.116   .     S
C128   H169    1.112   .     S
C128   H170    1.113   .     S
C128   N29     1.468   .     S
N29    H171    1.046   .     S
N29    C129    1.471   1_455 S
C129   H172    1.110   .     S
C129   C130    1.542   .     S
C129   H173    1.110   .     S
C129   N29     1.471   1_655 S
C130   H175    1.111   .     S
C130   C131    1.538   .     S
C130   H174    1.110   .     S
C131   H177    1.111   .     S
C131   H176    1.114   .     S
C131   N30     1.481   .     S
N30    C132    1.483   .     S
N30    C133    1.481   .     S
C132   H187    1.108   .     S
C132   H186    1.112   .     S
C132   C136    1.546   .     S
C133   H178    1.109   .     S
C133   H179    1.107   .     S
C133   C134    1.533   .     S
C134   H180    1.111   .     S
C134   H181    1.111   .     S
C134   C135    1.533   .     S
C135   H183    1.112   .     S
C135   N31     1.461   .     S
C135   H182    1.113   .     S
N31    H184    1.044   .     S
N31    H185    1.046   .     S
C136   H189    1.108   .     S
C136   H188    1.109   .     S
C136   C137    1.535   .     S
C137   H191    1.112   .     S
C137   H190    1.112   .     S
C137   N32     1.462   .     S
N32    H193    1.046   .     S
N32    H192    1.046   .     S
H194   C150    1.111   .     S
H195   C150    1.103   .     S
C138   O9      1.219   .     D
C138   C152    1.484   .     S
C138   N39     1.375   1_455 S
N33    C139    1.358   .     S
C139   C140    1.475   .     S
C140   C141    1.404   .     S
C140   C145    1.405   .     D
C141   C142    1.396   .     D
C141   H199    1.083   .     S
C142   H200    1.081   .     S
C142   C143    1.405   .     S
C143   C146    1.512   .     S
C143   C144    1.404   .     D
C144   C145    1.397   .     S
C144   H201    1.083   .     S
C145   H202    1.083   .     S
C146   N34     1.466   .     S
C146   C150    1.534   .     S
N34    C147    1.435   .     S
C147   C148    1.397   .     S
C148   H198    1.081   .     S
C149   C153    1.403   .     D
C149   C151    1.509   .     S
C152   C153    1.407   .     S
C152   C154    1.405   .     D
C153   H204    1.082   .     S
C154   H203    1.079   .     S
O8     C155    1.415   .     S
C155   C156    1.539   .     S
C155   H206    1.111   .     S
C155   H207    1.115   .     S
C156   H209    1.110   .     S
C156   H208    1.112   .     S
C156   N35     1.465   .     S
N35    C157    1.473   .     S
N35    H210    1.045   .     S
C157   H211    1.113   .     S
C157   C158    1.541   .     S
C157   H212    1.110   .     S
C158   H213    1.111   .     S
C158   H214    1.110   .     S
C158   C159    1.529   1_655 S
C159   N36     1.481   .     S
C159   H215    1.108   .     S
C159   H216    1.113   .     S
C159   C158    1.529   1_455 S
N36    C161    1.480   .     S
N36    C160    1.484   .     S
C160   C164    1.542   .     S
C160   H225    1.107   .     S
C160   H226    1.114   .     S
C161   H218    1.111   .     S
C161   C162    1.536   .     S
C161   H217    1.110   .     S
C162   C163    1.533   .     S
C162   H219    1.109   .     S
C162   H220    1.111   .     S
C163   H221    1.114   .     S
C163   N37     1.461   .     S
C163   H222    1.113   .     S
N37    H224    1.046   .     S
N37    H223    1.046   .     S
C164   H227    1.111   .     S
C164   C165    1.535   .     S
C164   H228    1.108   .     S
C165   N38     1.461   .     S
C165   H230    1.110   .     S
C165   H229    1.109   .     S
N38    H231    1.046   .     S
N38    H232    1.044   .     S
N39    H237    1.045   .     S
N39    C138    1.375   1_655 S
