data_935
_audit_creation_date              2023-09-08
_audit_creation_method            'Materials Studio'
_symmetry_space_group_name_H-M    'P1'
_symmetry_Int_Tables_number       1
_symmetry_cell_setting            triclinic
loop_
_symmetry_equiv_pos_as_xyz
  x,y,z
_cell_length_a                    34.4382
_cell_length_b                    25.0203
_cell_length_c                    7.0791
_cell_angle_alpha                 90.0000
_cell_angle_beta                  90.0358
_cell_angle_gamma                 90.0000
loop_
_atom_site_label
_atom_site_type_symbol
_atom_site_fract_x
_atom_site_fract_y
_atom_site_fract_z
_atom_site_U_iso_or_equiv
_atom_site_adp_type
_atom_site_occupancy
C1     C     0.42403   0.47232   0.07280   0.00000  Uiso   1.00
C2     C     0.39039   0.55493   0.12261   0.00000  Uiso   1.00
C3     C     0.35601   0.52824   0.17629   0.00000  Uiso   1.00
C4     C     0.32162   0.55685   0.22340   0.00000  Uiso   1.00
C5     C     0.28593   0.52841   0.23618   0.00000  Uiso   1.00
C6     C     0.28616   0.35896   0.27251   0.00000  Uiso   1.00
C7     C     0.32156   0.38720   0.25927   0.00000  Uiso   1.00
C8     C     0.35636   0.64111   0.28916   0.00000  Uiso   1.00
C9     C     0.32234   0.72325   0.34210   0.00000  Uiso   1.00
C10    C     0.28752   0.69607   0.31613   0.00000  Uiso   1.00
C11    C     0.14345   0.30436   0.17018   0.00000  Uiso   1.00
C12    C     0.39394   0.27568   0.34860   0.00000  Uiso   1.00
N13    N     0.42680   0.30092   0.34404   0.00000  Uiso   1.00
C14    C     0.46364   0.27469   0.35456   0.00000  Uiso   1.00
C15    C     0.00316   0.30571   0.14330   0.00000  Uiso   1.00
C16    C     0.96668   0.28127   0.14312   0.00000  Uiso   1.00
C17    C     0.92405   0.97232   0.42622   0.00000  Uiso   1.00
C18    C     0.89040   0.05493   0.37628   0.00000  Uiso   1.00
C19    C     0.85601   0.02824   0.32247   0.00000  Uiso   1.00
C20    C     0.82162   0.05685   0.27525   0.00000  Uiso   1.00
C21    C     0.78594   0.02841   0.26239   0.00000  Uiso   1.00
C22    C     0.78616   0.85896   0.22605   0.00000  Uiso   1.00
C23    C     0.82156   0.88721   0.23936   0.00000  Uiso   1.00
C24    C     0.85636   0.14111   0.20950   0.00000  Uiso   1.00
C25    C     0.82233   0.22324   0.15649   0.00000  Uiso   1.00
C26    C     0.78751   0.19606   0.18243   0.00000  Uiso   1.00
C27    C     0.64346   0.80437   0.32815   0.00000  Uiso   1.00
C28    C     0.89392   0.77569   0.15001   0.00000  Uiso   1.00
N29    N     0.92678   0.80094   0.15455   0.00000  Uiso   1.00
C30    C     0.96362   0.77471   0.14398   0.00000  Uiso   1.00
C31    C     0.50317   0.80573   0.35513   0.00000  Uiso   1.00
C32    C     0.46670   0.78129   0.35537   0.00000  Uiso   1.00
C33    C     0.07652   0.47232   0.42568   0.00000  Uiso   1.00
C34    C     0.11017   0.55493   0.37587   0.00000  Uiso   1.00
C35    C     0.14455   0.52824   0.32219   0.00000  Uiso   1.00
C36    C     0.17894   0.55685   0.27508   0.00000  Uiso   1.00
C37    C     0.21462   0.52841   0.26231   0.00000  Uiso   1.00
C38    C     0.21439   0.35896   0.22597   0.00000  Uiso   1.00
C39    C     0.17899   0.38720   0.23921   0.00000  Uiso   1.00
C40    C     0.14419   0.64111   0.20932   0.00000  Uiso   1.00
C41    C     0.17821   0.72325   0.15638   0.00000  Uiso   1.00
C42    C     0.21304   0.69607   0.18236   0.00000  Uiso   1.00
C43    C     0.35710   0.30436   0.32830   0.00000  Uiso   1.00
C44    C     0.10661   0.27568   0.14988   0.00000  Uiso   1.00
N45    N     0.07376   0.30092   0.15445   0.00000  Uiso   1.00
C46    C     0.03691   0.27469   0.14392   0.00000  Uiso   1.00
C47    C     0.49740   0.30571   0.35518   0.00000  Uiso   1.00
C48    C     0.53387   0.28127   0.35536   0.00000  Uiso   1.00
C49    C     0.57650   0.97232   0.07227   0.00000  Uiso   1.00
C50    C     0.61015   0.05493   0.12220   0.00000  Uiso   1.00
C51    C     0.64454   0.02824   0.17602   0.00000  Uiso   1.00
C52    C     0.67894   0.05685   0.22324   0.00000  Uiso   1.00
C53    C     0.71462   0.02841   0.23609   0.00000  Uiso   1.00
C54    C     0.71439   0.85896   0.27244   0.00000  Uiso   1.00
C55    C     0.67900   0.88721   0.25913   0.00000  Uiso   1.00
C56    C     0.64420   0.14111   0.28899   0.00000  Uiso   1.00
C57    C     0.67823   0.22324   0.34199   0.00000  Uiso   1.00
C58    C     0.71305   0.19606   0.31605   0.00000  Uiso   1.00
C59    C     0.85709   0.80437   0.17034   0.00000  Uiso   1.00
C60    C     0.60663   0.77569   0.34847   0.00000  Uiso   1.00
N61    N     0.57377   0.80094   0.34393   0.00000  Uiso   1.00
C62    C     0.53693   0.77471   0.35450   0.00000  Uiso   1.00
C63    C     0.99738   0.80573   0.14335   0.00000  Uiso   1.00
C64    C     0.03385   0.78129   0.14311   0.00000  Uiso   1.00
C65    C     0.25028   0.55682   0.24924   0.00000  Uiso   1.00
C66    C     0.25028   0.38629   0.24924   0.00000  Uiso   1.00
C67    C     0.75028   0.05682   0.24924   0.00000  Uiso   1.00
C68    C     0.75028   0.88629   0.24924   0.00000  Uiso   1.00
H69    H     0.45128   0.44911   0.03246   0.00000  Uiso   1.00
H70    H     0.39123   0.60047   0.11902   0.00000  Uiso   1.00
H71    H     0.38541   0.61937   0.28172   0.00000  Uiso   1.00
H72    H     0.32213   0.76788   0.37445   0.00000  Uiso   1.00
H73    H     0.25875   0.71826   0.32992   0.00000  Uiso   1.00
H74    H     0.39343   0.23048   0.36866   0.00000  Uiso   1.00
H75    H     0.00550   0.35116   0.14294   0.00000  Uiso   1.00
H76    H     0.93925   0.30678   0.14227   0.00000  Uiso   1.00
H77    H     0.95148   0.94954   0.46692   0.00000  Uiso   1.00
H78    H     0.89124   0.10047   0.37987   0.00000  Uiso   1.00
H79    H     0.88541   0.11938   0.21699   0.00000  Uiso   1.00
H80    H     0.82211   0.26787   0.12412   0.00000  Uiso   1.00
H81    H     0.75874   0.21825   0.16861   0.00000  Uiso   1.00
H82    H     0.89341   0.73049   0.12995   0.00000  Uiso   1.00
H83    H     0.50550   0.85118   0.35545   0.00000  Uiso   1.00
H84    H     0.43927   0.80679   0.35623   0.00000  Uiso   1.00
H85    H     0.04927   0.44911   0.46601   0.00000  Uiso   1.00
H86    H     0.10933   0.60047   0.37947   0.00000  Uiso   1.00
H87    H     0.11587   0.61765   0.21820   0.00000  Uiso   1.00
H88    H     0.17842   0.76788   0.12402   0.00000  Uiso   1.00
H89    H     0.24181   0.71826   0.16858   0.00000  Uiso   1.00
H90    H     0.10655   0.23048   0.12970   0.00000  Uiso   1.00
H91    H     0.49525   0.35118   0.35554   0.00000  Uiso   1.00
H92    H     0.56130   0.30677   0.35621   0.00000  Uiso   1.00
H93    H     0.54907   0.94954   0.03158   0.00000  Uiso   1.00
H94    H     0.60931   0.10047   0.11859   0.00000  Uiso   1.00
H95    H     0.61589   0.11764   0.28005   0.00000  Uiso   1.00
H96    H     0.67845   0.26787   0.37435   0.00000  Uiso   1.00
H97    H     0.74182   0.21825   0.32986   0.00000  Uiso   1.00
H98    H     0.60657   0.73049   0.36864   0.00000  Uiso   1.00
H99    H     0.99523   0.85120   0.14303   0.00000  Uiso   1.00
H100   H     0.06128   0.80679   0.14225   0.00000  Uiso   1.00
C101   C     0.57597   0.47232   0.92720   0.00000  Uiso   1.00
C102   C     0.60961   0.55493   0.87739   0.00000  Uiso   1.00
C103   C     0.64399   0.52824   0.82371   0.00000  Uiso   1.00
C104   C     0.67838   0.55685   0.77660   0.00000  Uiso   1.00
C105   C     0.71407   0.52841   0.76382   0.00000  Uiso   1.00
C106   C     0.71384   0.35896   0.72749   0.00000  Uiso   1.00
C107   C     0.67844   0.38720   0.74073   0.00000  Uiso   1.00
C108   C     0.64364   0.64111   0.71084   0.00000  Uiso   1.00
C109   C     0.67766   0.72325   0.65790   0.00000  Uiso   1.00
C110   C     0.71248   0.69607   0.68387   0.00000  Uiso   1.00
C111   C     0.85655   0.30436   0.82982   0.00000  Uiso   1.00
C112   C     0.60606   0.27568   0.65140   0.00000  Uiso   1.00
N113   N     0.57320   0.30092   0.65596   0.00000  Uiso   1.00
C114   C     0.53636   0.27469   0.64544   0.00000  Uiso   1.00
C115   C     0.99684   0.30571   0.85670   0.00000  Uiso   1.00
C116   C     0.03332   0.28127   0.85688   0.00000  Uiso   1.00
C117   C     0.07595   0.97232   0.57378   0.00000  Uiso   1.00
C118   C     0.10960   0.05493   0.62372   0.00000  Uiso   1.00
C119   C     0.14399   0.02824   0.67753   0.00000  Uiso   1.00
C120   C     0.17838   0.05685   0.72475   0.00000  Uiso   1.00
C121   C     0.21406   0.02841   0.73761   0.00000  Uiso   1.00
C122   C     0.21384   0.85896   0.77395   0.00000  Uiso   1.00
C123   C     0.17844   0.88721   0.76064   0.00000  Uiso   1.00
C124   C     0.14364   0.14111   0.79050   0.00000  Uiso   1.00
C125   C     0.17767   0.22324   0.84351   0.00000  Uiso   1.00
C126   C     0.21249   0.19606   0.81757   0.00000  Uiso   1.00
C127   C     0.35654   0.80437   0.67185   0.00000  Uiso   1.00
C128   C     0.10608   0.77569   0.84999   0.00000  Uiso   1.00
N129   N     0.07322   0.80094   0.84545   0.00000  Uiso   1.00
C130   C     0.03638   0.77471   0.85602   0.00000  Uiso   1.00
C131   C     0.49683   0.80573   0.64487   0.00000  Uiso   1.00
C132   C     0.53330   0.78129   0.64463   0.00000  Uiso   1.00
C133   C     0.92348   0.47232   0.57432   0.00000  Uiso   1.00
C134   C     0.88983   0.55493   0.62413   0.00000  Uiso   1.00
C135   C     0.85545   0.52824   0.67781   0.00000  Uiso   1.00
C136   C     0.82106   0.55685   0.72492   0.00000  Uiso   1.00
C137   C     0.78538   0.52841   0.73769   0.00000  Uiso   1.00
C138   C     0.78561   0.35896   0.77403   0.00000  Uiso   1.00
C139   C     0.82101   0.38720   0.76079   0.00000  Uiso   1.00
C140   C     0.85581   0.64111   0.79068   0.00000  Uiso   1.00
C141   C     0.82179   0.72325   0.84362   0.00000  Uiso   1.00
C142   C     0.78696   0.69607   0.81764   0.00000  Uiso   1.00
C143   C     0.64290   0.30436   0.67170   0.00000  Uiso   1.00
C144   C     0.89339   0.27568   0.85012   0.00000  Uiso   1.00
N145   N     0.92624   0.30092   0.84555   0.00000  Uiso   1.00
C146   C     0.96309   0.27469   0.85608   0.00000  Uiso   1.00
C147   C     0.50260   0.30571   0.64482   0.00000  Uiso   1.00
C148   C     0.46613   0.28127   0.64464   0.00000  Uiso   1.00
C149   C     0.42350   0.97232   0.92773   0.00000  Uiso   1.00
C150   C     0.38985   0.05493   0.87780   0.00000  Uiso   1.00
C151   C     0.35546   0.02824   0.82398   0.00000  Uiso   1.00
C152   C     0.32106   0.05685   0.77676   0.00000  Uiso   1.00
C153   C     0.28538   0.02841   0.76391   0.00000  Uiso   1.00
C154   C     0.28561   0.85896   0.72756   0.00000  Uiso   1.00
C155   C     0.32100   0.88721   0.74087   0.00000  Uiso   1.00
C156   C     0.35580   0.14111   0.71101   0.00000  Uiso   1.00
C157   C     0.32177   0.22324   0.65801   0.00000  Uiso   1.00
C158   C     0.28695   0.19606   0.68395   0.00000  Uiso   1.00
C159   C     0.14291   0.80437   0.82966   0.00000  Uiso   1.00
C160   C     0.39337   0.77569   0.65153   0.00000  Uiso   1.00
N161   N     0.42623   0.80094   0.65607   0.00000  Uiso   1.00
C162   C     0.46307   0.77471   0.64550   0.00000  Uiso   1.00
C163   C     0.00262   0.80573   0.85665   0.00000  Uiso   1.00
C164   C     0.96615   0.78129   0.85689   0.00000  Uiso   1.00
C165   C     0.74972   0.55682   0.75076   0.00000  Uiso   1.00
C166   C     0.74972   0.38629   0.75076   0.00000  Uiso   1.00
C167   C     0.24972   0.05682   0.75076   0.00000  Uiso   1.00
C168   C     0.24972   0.88629   0.75076   0.00000  Uiso   1.00
H169   H     0.54872   0.44911   0.96754   0.00000  Uiso   1.00
H170   H     0.60877   0.60047   0.88098   0.00000  Uiso   1.00
H171   H     0.61459   0.61937   0.71828   0.00000  Uiso   1.00
H172   H     0.67787   0.76788   0.62555   0.00000  Uiso   1.00
H173   H     0.74125   0.71826   0.67008   0.00000  Uiso   1.00
H174   H     0.60657   0.23048   0.63134   0.00000  Uiso   1.00
H175   H     0.99450   0.35116   0.85706   0.00000  Uiso   1.00
H176   H     0.06075   0.30678   0.85773   0.00000  Uiso   1.00
H177   H     0.04852   0.94954   0.53308   0.00000  Uiso   1.00
H178   H     0.10876   0.10047   0.62013   0.00000  Uiso   1.00
H179   H     0.11459   0.11938   0.78301   0.00000  Uiso   1.00
H180   H     0.17789   0.26787   0.87588   0.00000  Uiso   1.00
H181   H     0.24126   0.21825   0.83139   0.00000  Uiso   1.00
H182   H     0.10659   0.73049   0.87005   0.00000  Uiso   1.00
H183   H     0.49450   0.85118   0.64455   0.00000  Uiso   1.00
H184   H     0.56073   0.80679   0.64377   0.00000  Uiso   1.00
H185   H     0.95073   0.44911   0.53399   0.00000  Uiso   1.00
H186   H     0.89067   0.60047   0.62053   0.00000  Uiso   1.00
H187   H     0.88413   0.61765   0.78180   0.00000  Uiso   1.00
H188   H     0.82158   0.76788   0.87598   0.00000  Uiso   1.00
H189   H     0.75819   0.71826   0.83142   0.00000  Uiso   1.00
H190   H     0.89345   0.23048   0.87030   0.00000  Uiso   1.00
H191   H     0.50475   0.35118   0.64446   0.00000  Uiso   1.00
H192   H     0.43870   0.30677   0.64379   0.00000  Uiso   1.00
H193   H     0.45093   0.94954   0.96842   0.00000  Uiso   1.00
H194   H     0.39069   0.10047   0.88141   0.00000  Uiso   1.00
H195   H     0.38411   0.11764   0.71995   0.00000  Uiso   1.00
H196   H     0.32155   0.26787   0.62565   0.00000  Uiso   1.00
H197   H     0.25818   0.21825   0.67014   0.00000  Uiso   1.00
H198   H     0.39343   0.73049   0.63136   0.00000  Uiso   1.00
H199   H     0.00477   0.85120   0.85697   0.00000  Uiso   1.00
H200   H     0.93872   0.80679   0.85775   0.00000  Uiso   1.00
C201   C     0.57597   0.52768   0.92720   0.00000  Uiso   1.00
C202   C     0.60961   0.44507   0.87739   0.00000  Uiso   1.00
C203   C     0.64399   0.47176   0.82371   0.00000  Uiso   1.00
C204   C     0.67838   0.44315   0.77660   0.00000  Uiso   1.00
C205   C     0.71407   0.47159   0.76382   0.00000  Uiso   1.00
C206   C     0.71384   0.64104   0.72749   0.00000  Uiso   1.00
C207   C     0.67844   0.61280   0.74073   0.00000  Uiso   1.00
C208   C     0.64364   0.35889   0.71084   0.00000  Uiso   1.00
C209   C     0.67766   0.27675   0.65790   0.00000  Uiso   1.00
C210   C     0.71248   0.30393   0.68387   0.00000  Uiso   1.00
C211   C     0.85655   0.69564   0.82982   0.00000  Uiso   1.00
C212   C     0.60606   0.72432   0.65140   0.00000  Uiso   1.00
N213   N     0.57320   0.69908   0.65596   0.00000  Uiso   1.00
C214   C     0.53636   0.72531   0.64544   0.00000  Uiso   1.00
C215   C     0.99684   0.69429   0.85670   0.00000  Uiso   1.00
C216   C     0.03332   0.71873   0.85688   0.00000  Uiso   1.00
C217   C     0.07595   0.02768   0.57378   0.00000  Uiso   1.00
C218   C     0.10960   0.94507   0.62372   0.00000  Uiso   1.00
C219   C     0.14399   0.97176   0.67753   0.00000  Uiso   1.00
C220   C     0.17838   0.94315   0.72475   0.00000  Uiso   1.00
C221   C     0.21406   0.97159   0.73761   0.00000  Uiso   1.00
C222   C     0.21384   0.14104   0.77395   0.00000  Uiso   1.00
C223   C     0.17844   0.11279   0.76064   0.00000  Uiso   1.00
C224   C     0.14364   0.85889   0.79050   0.00000  Uiso   1.00
C225   C     0.17767   0.77676   0.84351   0.00000  Uiso   1.00
C226   C     0.21249   0.80394   0.81757   0.00000  Uiso   1.00
C227   C     0.35654   0.19563   0.67185   0.00000  Uiso   1.00
C228   C     0.10608   0.22431   0.84999   0.00000  Uiso   1.00
N229   N     0.07322   0.19906   0.84545   0.00000  Uiso   1.00
C230   C     0.03638   0.22529   0.85602   0.00000  Uiso   1.00
C231   C     0.49683   0.19427   0.64487   0.00000  Uiso   1.00
C232   C     0.53330   0.21871   0.64463   0.00000  Uiso   1.00
C233   C     0.92348   0.52768   0.57432   0.00000  Uiso   1.00
C234   C     0.88983   0.44507   0.62413   0.00000  Uiso   1.00
C235   C     0.85545   0.47176   0.67781   0.00000  Uiso   1.00
C236   C     0.82106   0.44315   0.72492   0.00000  Uiso   1.00
C237   C     0.78538   0.47159   0.73769   0.00000  Uiso   1.00
C238   C     0.78561   0.64104   0.77403   0.00000  Uiso   1.00
C239   C     0.82101   0.61280   0.76079   0.00000  Uiso   1.00
C240   C     0.85581   0.35889   0.79068   0.00000  Uiso   1.00
C241   C     0.82179   0.27675   0.84362   0.00000  Uiso   1.00
C242   C     0.78696   0.30393   0.81764   0.00000  Uiso   1.00
C243   C     0.64290   0.69564   0.67170   0.00000  Uiso   1.00
C244   C     0.89339   0.72432   0.85012   0.00000  Uiso   1.00
N245   N     0.92624   0.69908   0.84555   0.00000  Uiso   1.00
C246   C     0.96309   0.72531   0.85608   0.00000  Uiso   1.00
C247   C     0.50260   0.69429   0.64482   0.00000  Uiso   1.00
C248   C     0.46613   0.71873   0.64464   0.00000  Uiso   1.00
C249   C     0.42350   0.02768   0.92773   0.00000  Uiso   1.00
C250   C     0.38985   0.94507   0.87780   0.00000  Uiso   1.00
C251   C     0.35546   0.97176   0.82398   0.00000  Uiso   1.00
C252   C     0.32106   0.94315   0.77676   0.00000  Uiso   1.00
C253   C     0.28538   0.97159   0.76391   0.00000  Uiso   1.00
C254   C     0.28561   0.14104   0.72756   0.00000  Uiso   1.00
C255   C     0.32100   0.11279   0.74087   0.00000  Uiso   1.00
C256   C     0.35580   0.85889   0.71101   0.00000  Uiso   1.00
C257   C     0.32177   0.77676   0.65801   0.00000  Uiso   1.00
C258   C     0.28695   0.80394   0.68395   0.00000  Uiso   1.00
C259   C     0.14291   0.19563   0.82966   0.00000  Uiso   1.00
C260   C     0.39337   0.22431   0.65153   0.00000  Uiso   1.00
N261   N     0.42623   0.19906   0.65607   0.00000  Uiso   1.00
C262   C     0.46307   0.22529   0.64550   0.00000  Uiso   1.00
C263   C     0.00262   0.19427   0.85665   0.00000  Uiso   1.00
C264   C     0.96615   0.21871   0.85689   0.00000  Uiso   1.00
C265   C     0.74972   0.44318   0.75076   0.00000  Uiso   1.00
C266   C     0.74972   0.61371   0.75076   0.00000  Uiso   1.00
C267   C     0.24972   0.94318   0.75076   0.00000  Uiso   1.00
C268   C     0.24972   0.11371   0.75076   0.00000  Uiso   1.00
H269   H     0.54872   0.55089   0.96754   0.00000  Uiso   1.00
H270   H     0.60877   0.39953   0.88098   0.00000  Uiso   1.00
H271   H     0.61459   0.38063   0.71828   0.00000  Uiso   1.00
H272   H     0.67787   0.23212   0.62555   0.00000  Uiso   1.00
H273   H     0.74125   0.28174   0.67008   0.00000  Uiso   1.00
H274   H     0.60657   0.76952   0.63134   0.00000  Uiso   1.00
H275   H     0.99450   0.64884   0.85706   0.00000  Uiso   1.00
H276   H     0.06075   0.69322   0.85773   0.00000  Uiso   1.00
H277   H     0.04852   0.05046   0.53308   0.00000  Uiso   1.00
H278   H     0.10876   0.89953   0.62013   0.00000  Uiso   1.00
H279   H     0.11459   0.88062   0.78301   0.00000  Uiso   1.00
H280   H     0.17789   0.73213   0.87588   0.00000  Uiso   1.00
H281   H     0.24126   0.78175   0.83139   0.00000  Uiso   1.00
H282   H     0.10659   0.26951   0.87005   0.00000  Uiso   1.00
H283   H     0.49450   0.14882   0.64455   0.00000  Uiso   1.00
H284   H     0.56073   0.19321   0.64377   0.00000  Uiso   1.00
H285   H     0.95073   0.55089   0.53399   0.00000  Uiso   1.00
H286   H     0.89067   0.39953   0.62053   0.00000  Uiso   1.00
H287   H     0.88413   0.38235   0.78180   0.00000  Uiso   1.00
H288   H     0.82158   0.23212   0.87598   0.00000  Uiso   1.00
H289   H     0.75819   0.28174   0.83142   0.00000  Uiso   1.00
H290   H     0.89345   0.76952   0.87030   0.00000  Uiso   1.00
H291   H     0.50475   0.64882   0.64446   0.00000  Uiso   1.00
H292   H     0.43870   0.69323   0.64379   0.00000  Uiso   1.00
H293   H     0.45093   0.05046   0.96842   0.00000  Uiso   1.00
H294   H     0.39069   0.89953   0.88141   0.00000  Uiso   1.00
H295   H     0.38411   0.88236   0.71995   0.00000  Uiso   1.00
H296   H     0.32155   0.73213   0.62565   0.00000  Uiso   1.00
H297   H     0.25818   0.78175   0.67014   0.00000  Uiso   1.00
H298   H     0.39343   0.26951   0.63136   0.00000  Uiso   1.00
H299   H     0.00477   0.14880   0.85697   0.00000  Uiso   1.00
H300   H     0.93872   0.19321   0.85775   0.00000  Uiso   1.00
C301   C     0.42403   0.52768   0.07280   0.00000  Uiso   1.00
C302   C     0.39039   0.44507   0.12261   0.00000  Uiso   1.00
C303   C     0.35601   0.47176   0.17629   0.00000  Uiso   1.00
C304   C     0.32162   0.44315   0.22340   0.00000  Uiso   1.00
C305   C     0.28593   0.47159   0.23618   0.00000  Uiso   1.00
C306   C     0.28616   0.64104   0.27251   0.00000  Uiso   1.00
C307   C     0.32156   0.61280   0.25927   0.00000  Uiso   1.00
C308   C     0.35636   0.35889   0.28916   0.00000  Uiso   1.00
C309   C     0.32234   0.27675   0.34210   0.00000  Uiso   1.00
C310   C     0.28752   0.30393   0.31613   0.00000  Uiso   1.00
C311   C     0.14345   0.69564   0.17018   0.00000  Uiso   1.00
C312   C     0.39394   0.72432   0.34860   0.00000  Uiso   1.00
N313   N     0.42680   0.69908   0.34404   0.00000  Uiso   1.00
C314   C     0.46364   0.72531   0.35456   0.00000  Uiso   1.00
C315   C     0.00316   0.69429   0.14330   0.00000  Uiso   1.00
C316   C     0.96668   0.71873   0.14312   0.00000  Uiso   1.00
C317   C     0.92405   0.02768   0.42622   0.00000  Uiso   1.00
C318   C     0.89040   0.94507   0.37628   0.00000  Uiso   1.00
C319   C     0.85601   0.97176   0.32247   0.00000  Uiso   1.00
C320   C     0.82162   0.94315   0.27525   0.00000  Uiso   1.00
C321   C     0.78594   0.97159   0.26239   0.00000  Uiso   1.00
C322   C     0.78616   0.14104   0.22605   0.00000  Uiso   1.00
C323   C     0.82156   0.11279   0.23936   0.00000  Uiso   1.00
C324   C     0.85636   0.85889   0.20950   0.00000  Uiso   1.00
C325   C     0.82233   0.77676   0.15649   0.00000  Uiso   1.00
C326   C     0.78751   0.80394   0.18243   0.00000  Uiso   1.00
C327   C     0.64346   0.19563   0.32815   0.00000  Uiso   1.00
C328   C     0.89392   0.22431   0.15001   0.00000  Uiso   1.00
N329   N     0.92678   0.19906   0.15455   0.00000  Uiso   1.00
C330   C     0.96362   0.22529   0.14398   0.00000  Uiso   1.00
C331   C     0.50317   0.19427   0.35513   0.00000  Uiso   1.00
C332   C     0.46670   0.21871   0.35537   0.00000  Uiso   1.00
C333   C     0.07652   0.52768   0.42568   0.00000  Uiso   1.00
C334   C     0.11017   0.44507   0.37587   0.00000  Uiso   1.00
C335   C     0.14455   0.47176   0.32219   0.00000  Uiso   1.00
C336   C     0.17894   0.44315   0.27508   0.00000  Uiso   1.00
C337   C     0.21462   0.47159   0.26231   0.00000  Uiso   1.00
C338   C     0.21439   0.64104   0.22597   0.00000  Uiso   1.00
C339   C     0.17899   0.61280   0.23921   0.00000  Uiso   1.00
C340   C     0.14419   0.35889   0.20932   0.00000  Uiso   1.00
C341   C     0.17821   0.27675   0.15638   0.00000  Uiso   1.00
C342   C     0.21304   0.30393   0.18236   0.00000  Uiso   1.00
C343   C     0.35710   0.69564   0.32830   0.00000  Uiso   1.00
C344   C     0.10661   0.72432   0.14988   0.00000  Uiso   1.00
N345   N     0.07376   0.69908   0.15445   0.00000  Uiso   1.00
C346   C     0.03691   0.72531   0.14392   0.00000  Uiso   1.00
C347   C     0.49740   0.69429   0.35518   0.00000  Uiso   1.00
C348   C     0.53387   0.71873   0.35536   0.00000  Uiso   1.00
C349   C     0.57650   0.02768   0.07227   0.00000  Uiso   1.00
C350   C     0.61015   0.94507   0.12220   0.00000  Uiso   1.00
C351   C     0.64454   0.97176   0.17602   0.00000  Uiso   1.00
C352   C     0.67894   0.94315   0.22324   0.00000  Uiso   1.00
C353   C     0.71462   0.97159   0.23609   0.00000  Uiso   1.00
C354   C     0.71439   0.14104   0.27244   0.00000  Uiso   1.00
C355   C     0.67900   0.11279   0.25913   0.00000  Uiso   1.00
C356   C     0.64420   0.85889   0.28899   0.00000  Uiso   1.00
C357   C     0.67823   0.77676   0.34199   0.00000  Uiso   1.00
C358   C     0.71305   0.80394   0.31605   0.00000  Uiso   1.00
C359   C     0.85709   0.19563   0.17034   0.00000  Uiso   1.00
C360   C     0.60663   0.22431   0.34847   0.00000  Uiso   1.00
N361   N     0.57377   0.19906   0.34393   0.00000  Uiso   1.00
C362   C     0.53693   0.22529   0.35450   0.00000  Uiso   1.00
C363   C     0.99738   0.19427   0.14335   0.00000  Uiso   1.00
C364   C     0.03385   0.21871   0.14311   0.00000  Uiso   1.00
C365   C     0.25028   0.44318   0.24924   0.00000  Uiso   1.00
C366   C     0.25028   0.61371   0.24924   0.00000  Uiso   1.00
C367   C     0.75028   0.94318   0.24924   0.00000  Uiso   1.00
C368   C     0.75028   0.11371   0.24924   0.00000  Uiso   1.00
H369   H     0.45128   0.55089   0.03246   0.00000  Uiso   1.00
H370   H     0.39123   0.39953   0.11902   0.00000  Uiso   1.00
H371   H     0.38541   0.38063   0.28172   0.00000  Uiso   1.00
H372   H     0.32213   0.23212   0.37445   0.00000  Uiso   1.00
H373   H     0.25875   0.28174   0.32992   0.00000  Uiso   1.00
H374   H     0.39343   0.76952   0.36866   0.00000  Uiso   1.00
H375   H     0.00550   0.64884   0.14294   0.00000  Uiso   1.00
H376   H     0.93925   0.69322   0.14227   0.00000  Uiso   1.00
H377   H     0.95148   0.05046   0.46692   0.00000  Uiso   1.00
H378   H     0.89124   0.89953   0.37987   0.00000  Uiso   1.00
H379   H     0.88541   0.88062   0.21699   0.00000  Uiso   1.00
H380   H     0.82211   0.73213   0.12412   0.00000  Uiso   1.00
H381   H     0.75874   0.78175   0.16861   0.00000  Uiso   1.00
H382   H     0.89341   0.26951   0.12995   0.00000  Uiso   1.00
H383   H     0.50550   0.14882   0.35545   0.00000  Uiso   1.00
H384   H     0.43927   0.19321   0.35623   0.00000  Uiso   1.00
H385   H     0.04927   0.55089   0.46601   0.00000  Uiso   1.00
H386   H     0.10933   0.39953   0.37947   0.00000  Uiso   1.00
H387   H     0.11587   0.38235   0.21820   0.00000  Uiso   1.00
H388   H     0.17842   0.23212   0.12402   0.00000  Uiso   1.00
H389   H     0.24181   0.28174   0.16858   0.00000  Uiso   1.00
H390   H     0.10655   0.76952   0.12970   0.00000  Uiso   1.00
H391   H     0.49525   0.64882   0.35554   0.00000  Uiso   1.00
H392   H     0.56130   0.69323   0.35621   0.00000  Uiso   1.00
H393   H     0.54907   0.05046   0.03158   0.00000  Uiso   1.00
H394   H     0.60931   0.89953   0.11859   0.00000  Uiso   1.00
H395   H     0.61589   0.88236   0.28005   0.00000  Uiso   1.00
H396   H     0.67845   0.73213   0.37435   0.00000  Uiso   1.00
H397   H     0.74182   0.78175   0.32986   0.00000  Uiso   1.00
H398   H     0.60657   0.26951   0.36864   0.00000  Uiso   1.00
H399   H     0.99523   0.14880   0.14303   0.00000  Uiso   1.00
H400   H     0.06128   0.19321   0.14225   0.00000  Uiso   1.00
loop_
_geom_bond_atom_site_label_1
_geom_bond_atom_site_label_2
_geom_bond_distance
_geom_bond_site_symmetry_2
_ccdc_geom_bond_type
C1     H69     1.140   .     S
C1     C302    1.390   .     D
C1     C301    1.385   .     S
C2     C3      1.412   .     S
C2     H70     1.140   .     S
C2     C301    1.390   .     D
C3     C4      1.424   .     S
C3     C303    1.413   .     D
C4     C5      1.423   .     S
C4     C307    1.423   .     D
C5     C65     1.422   .     D
C5     C305    1.422   .     S
C6     C7      1.412   .     D
C6     C66     1.422   .     S
C6     C310    1.412   .     S
C7     C304    1.423   .     S
C7     C308    1.408   .     S
C8     H71     1.140   .     S
C8     C307    1.408   .     S
C8     C343    1.392   .     D
C9     C10     1.391   .     D
C9     H72     1.140   .     S
C9     C343    1.386   .     S
C10    H73     1.140   .     S
C10    C306    1.412   .     S
C11    C44     1.465   .     S
C11    C341    1.386   .     D
C11    C340    1.392   .     S
C12    N13     1.296   .     D
C12    C43     1.465   .     S
C12    H74     1.140   .     S
N13    C14     1.430   .     S
C14    C47     1.398   .     D
C14    C332    1.405   .     S
C15    C46     1.398   .     D
C15    H75     1.140   .     S
C15    C16     1.397   1_455 S
C16    H76     1.140   .     S
C16    C330    1.405   .     D
C16    C15     1.397   1_655 S
C17    H77     1.140   .     S
C17    C318    1.390   .     S
C17    C317    1.385   1_565 D
C18    C19     1.412   .     D
C18    H78     1.140   .     S
C18    C317    1.390   .     S
C19    C20     1.423   .     S
C19    C319    1.413   1_545 S
C20    C21     1.423   .     D
C20    C323    1.423   .     S
C21    C67     1.422   .     S
C21    C321    1.422   1_545 S
C22    C23     1.412   .     D
C22    C68     1.422   .     S
C22    C326    1.412   .     S
C23    C320    1.423   .     S
C23    C324    1.408   .     S
C24    H79     1.140   .     S
C24    C323    1.408   .     D
C24    C359    1.392   .     S
C25    C26     1.391   .     S
C25    H80     1.140   .     S
C25    C359    1.386   .     D
C26    H81     1.140   .     S
C26    C322    1.412   .     D
C27    C60     1.464   .     S
C27    C357    1.386   .     S
C27    C356    1.392   .     D
C28    N29     1.296   .     D
C28    C59     1.464   .     S
C28    H82     1.140   .     S
N29    C30     1.430   .     S
C30    C63     1.398   .     D
C30    C316    1.405   .     S
C31    C32     1.397   .     S
C31    C62     1.398   .     D
C31    H83     1.140   .     S
C32    H84     1.140   .     S
C32    C314    1.405   .     D
C33    H85     1.140   .     S
C33    C334    1.390   .     D
C33    C333    1.385   .     S
C34    C35     1.412   .     S
C34    H86     1.140   .     S
C34    C333    1.390   .     D
C35    C36     1.424   .     D
C35    C335    1.413   .     S
C36    C37     1.423   .     S
C36    C339    1.423   .     S
C37    C65     1.422   .     S
C37    C337    1.422   .     D
C38    C39     1.412   .     S
C38    C66     1.422   .     S
C38    C342    1.412   .     D
C39    C336    1.423   .     S
C39    C340    1.408   .     D
C40    H87     1.140   .     S
C40    C311    1.392   .     D
C40    C339    1.408   .     S
C41    C42     1.391   .     D
C41    H88     1.140   .     S
C41    C311    1.386   .     S
C42    H89     1.140   .     S
C42    C338    1.412   .     S
C43    C308    1.392   .     D
C43    C309    1.386   .     S
C44    N45     1.296   .     D
C44    H90     1.140   .     S
N45    C46     1.431   .     S
C46    C364    1.405   .     S
C47    C48     1.397   .     S
C47    H91     1.140   .     S
C48    H92     1.140   .     S
C48    C362    1.405   .     D
C49    H93     1.140   .     S
C49    C350    1.390   .     S
C49    C349    1.385   1_565 D
C50    C51     1.412   .     D
C50    H94     1.140   .     S
C50    C349    1.390   .     S
C51    C52     1.424   .     S
C51    C351    1.413   1_545 S
C52    C53     1.423   .     S
C52    C355    1.423   .     D
C53    C67     1.422   .     D
C53    C353    1.422   1_545 S
C54    C55     1.412   .     D
C54    C68     1.422   .     S
C54    C358    1.412   .     S
C55    C352    1.423   .     S
C55    C356    1.408   .     S
C56    H95     1.140   .     S
C56    C327    1.392   .     D
C56    C355    1.408   .     S
C57    C58     1.391   .     D
C57    H96     1.140   .     S
C57    C327    1.386   .     S
C58    H97     1.140   .     S
C58    C354    1.412   .     S
C59    C324    1.392   .     D
C59    C325    1.386   .     S
C60    N61     1.296   .     D
C60    H98     1.140   .     S
N61    C62     1.430   .     S
C62    C348    1.405   .     S
C63    H99     1.140   .     S
C63    C64     1.397   1_655 S
C64    H100    1.140   .     S
C64    C346    1.405   .     D
C64    C63     1.397   1_455 S
C65    C366    1.423   .     S
C66    C365    1.423   .     D
C67    C368    1.423   .     S
C68    C367    1.423   .     D
C101   H169    1.140   .     S
C101   C202    1.390   .     D
C101   C201    1.385   .     S
C102   C103    1.412   .     S
C102   H170    1.140   .     S
C102   C201    1.390   .     D
C103   C104    1.424   .     S
C103   C203    1.413   .     D
C104   C105    1.423   .     S
C104   C207    1.423   .     D
C105   C165    1.422   .     D
C105   C205    1.422   .     S
C106   C107    1.412   .     D
C106   C166    1.422   .     S
C106   C210    1.412   .     S
C107   C204    1.423   .     S
C107   C208    1.408   .     S
C108   H171    1.140   .     S
C108   C207    1.408   .     S
C108   C243    1.392   .     D
C109   C110    1.391   .     D
C109   H172    1.140   .     S
C109   C243    1.386   .     S
C110   H173    1.140   .     S
C110   C206    1.412   .     S
C111   C144    1.465   .     S
C111   C241    1.386   .     D
C111   C240    1.392   .     S
C112   N113    1.296   .     D
C112   C143    1.465   .     S
C112   H174    1.140   .     S
N113   C114    1.430   .     S
C114   C147    1.398   .     D
C114   C232    1.405   .     S
C115   C146    1.398   .     D
C115   H175    1.140   .     S
C115   C116    1.397   1_655 S
C116   H176    1.140   .     S
C116   C230    1.405   .     D
C116   C115    1.397   1_455 S
C117   H177    1.140   .     S
C117   C218    1.390   .     S
C117   C217    1.385   1_565 D
C118   C119    1.412   .     D
C118   H178    1.140   .     S
C118   C217    1.390   .     S
C119   C120    1.423   .     S
C119   C219    1.413   1_545 S
C120   C121    1.423   .     D
C120   C223    1.423   .     S
C121   C167    1.422   .     S
C121   C221    1.422   1_545 S
C122   C123    1.412   .     D
C122   C168    1.422   .     S
C122   C226    1.412   .     S
C123   C220    1.423   .     S
C123   C224    1.408   .     S
C124   H179    1.140   .     S
C124   C223    1.408   .     D
C124   C259    1.392   .     S
C125   C126    1.391   .     S
C125   H180    1.140   .     S
C125   C259    1.386   .     D
C126   H181    1.140   .     S
C126   C222    1.412   .     D
C127   C160    1.464   .     S
C127   C257    1.386   .     S
C127   C256    1.392   .     D
C128   N129    1.296   .     D
C128   C159    1.464   .     S
C128   H182    1.140   .     S
N129   C130    1.430   .     S
C130   C163    1.398   .     D
C130   C216    1.405   .     S
C131   C132    1.397   .     S
C131   C162    1.398   .     D
C131   H183    1.140   .     S
C132   H184    1.140   .     S
C132   C214    1.405   .     D
C133   H185    1.140   .     S
C133   C234    1.390   .     D
C133   C233    1.385   .     S
C134   C135    1.412   .     S
C134   H186    1.140   .     S
C134   C233    1.390   .     D
C135   C136    1.424   .     D
C135   C235    1.413   .     S
C136   C137    1.423   .     S
C136   C239    1.423   .     S
C137   C165    1.422   .     S
C137   C237    1.422   .     D
C138   C139    1.412   .     S
C138   C166    1.422   .     S
C138   C242    1.412   .     D
C139   C236    1.423   .     S
C139   C240    1.408   .     D
C140   H187    1.140   .     S
C140   C211    1.392   .     D
C140   C239    1.408   .     S
C141   C142    1.391   .     D
C141   H188    1.140   .     S
C141   C211    1.386   .     S
C142   H189    1.140   .     S
C142   C238    1.412   .     S
C143   C208    1.392   .     D
C143   C209    1.386   .     S
C144   N145    1.296   .     D
C144   H190    1.140   .     S
N145   C146    1.431   .     S
C146   C264    1.405   .     S
C147   C148    1.397   .     S
C147   H191    1.140   .     S
C148   H192    1.140   .     S
C148   C262    1.405   .     D
C149   H193    1.140   .     S
C149   C250    1.390   .     S
C149   C249    1.385   1_565 D
C150   C151    1.412   .     D
C150   H194    1.140   .     S
C150   C249    1.390   .     S
C151   C152    1.424   .     S
C151   C251    1.413   1_545 S
C152   C153    1.423   .     S
C152   C255    1.423   .     D
C153   C167    1.422   .     D
C153   C253    1.422   1_545 S
C154   C155    1.412   .     D
C154   C168    1.422   .     S
C154   C258    1.412   .     S
C155   C252    1.423   .     S
C155   C256    1.408   .     S
C156   H195    1.140   .     S
C156   C227    1.392   .     D
C156   C255    1.408   .     S
C157   C158    1.391   .     D
C157   H196    1.140   .     S
C157   C227    1.386   .     S
C158   H197    1.140   .     S
C158   C254    1.412   .     S
C159   C224    1.392   .     D
C159   C225    1.386   .     S
C160   N161    1.296   .     D
C160   H198    1.140   .     S
N161   C162    1.430   .     S
C162   C248    1.405   .     S
C163   H199    1.140   .     S
C163   C164    1.397   1_455 S
C164   H200    1.140   .     S
C164   C246    1.405   .     D
C164   C163    1.397   1_655 S
C165   C266    1.423   .     S
C166   C265    1.423   .     D
C167   C268    1.423   .     S
C168   C267    1.423   .     D
C201   H269    1.140   .     S
C202   C203    1.412   .     S
C202   H270    1.140   .     S
C203   C204    1.424   .     S
C204   C205    1.423   .     D
C205   C265    1.422   .     S
C206   C207    1.412   .     S
C206   C266    1.422   .     D
C208   H271    1.140   .     S
C209   C210    1.391   .     D
C209   H272    1.140   .     S
C210   H273    1.140   .     S
C211   C244    1.465   .     S
C212   N213    1.296   .     D
C212   C243    1.465   .     S
C212   H274    1.140   .     S
N213   C214    1.430   .     S
C214   C247    1.398   .     S
C215   C246    1.398   .     S
C215   H275    1.140   .     S
C215   C216    1.397   1_655 D
C216   H276    1.140   .     S
C216   C215    1.397   1_455 D
C217   H277    1.140   .     S
C217   C117    1.385   1_545 D
C218   C219    1.412   .     D
C218   H278    1.140   .     S
C219   C220    1.423   .     S
C219   C119    1.413   1_565 S
C220   C221    1.423   .     D
C221   C267    1.422   .     S
C221   C121    1.422   1_565 S
C222   C223    1.412   .     S
C222   C268    1.422   .     S
C224   H279    1.140   .     S
C225   C226    1.391   .     D
C225   H280    1.140   .     S
C226   H281    1.140   .     S
C227   C260    1.464   .     S
C228   N229    1.296   .     D
C228   C259    1.464   .     S
C228   H282    1.140   .     S
N229   C230    1.430   .     S
C230   C263    1.398   .     S
C231   C232    1.397   .     D
C231   C262    1.398   .     S
C231   H283    1.140   .     S
C232   H284    1.140   .     S
C233   H285    1.140   .     S
C234   C235    1.412   .     S
C234   H286    1.140   .     S
C235   C236    1.424   .     D
C236   C237    1.423   .     S
C237   C265    1.422   .     S
C238   C239    1.412   .     D
C238   C266    1.422   .     S
C240   H287    1.140   .     S
C241   C242    1.391   .     S
C241   H288    1.140   .     S
C242   H289    1.140   .     S
C244   N245    1.296   .     D
C244   H290    1.140   .     S
N245   C246    1.431   .     S
C247   C248    1.397   .     D
C247   H291    1.140   .     S
C248   H292    1.140   .     S
C249   H293    1.140   .     S
C249   C149    1.385   1_545 D
C250   C251    1.412   .     D
C250   H294    1.140   .     S
C251   C252    1.424   .     S
C251   C151    1.413   1_565 S
C252   C253    1.423   .     D
C253   C267    1.422   .     S
C253   C153    1.422   1_565 S
C254   C255    1.412   .     S
C254   C268    1.422   .     D
C256   H295    1.140   .     S
C257   C258    1.391   .     D
C257   H296    1.140   .     S
C258   H297    1.140   .     S
C260   N261    1.296   .     D
C260   H298    1.140   .     S
N261   C262    1.430   .     S
C263   H299    1.140   .     S
C263   C264    1.397   1_455 D
C264   H300    1.140   .     S
C264   C263    1.397   1_655 D
C301   H369    1.140   .     S
C302   C303    1.412   .     S
C302   H370    1.140   .     S
C303   C304    1.424   .     S
C304   C305    1.423   .     D
C305   C365    1.422   .     S
C306   C307    1.412   .     S
C306   C366    1.422   .     D
C308   H371    1.140   .     S
C309   C310    1.391   .     D
C309   H372    1.140   .     S
C310   H373    1.140   .     S
C311   C344    1.465   .     S
C312   N313    1.296   .     D
C312   C343    1.465   .     S
C312   H374    1.140   .     S
N313   C314    1.430   .     S
C314   C347    1.398   .     S
C315   C346    1.398   .     S
C315   H375    1.140   .     S
C315   C316    1.397   1_455 D
C316   H376    1.140   .     S
C316   C315    1.397   1_655 D
C317   H377    1.140   .     S
C317   C17     1.385   1_545 D
C318   C319    1.412   .     D
C318   H378    1.140   .     S
C319   C320    1.423   .     S
C319   C19     1.413   1_565 S
C320   C321    1.423   .     D
C321   C367    1.422   .     S
C321   C21     1.422   1_565 S
C322   C323    1.412   .     S
C322   C368    1.422   .     S
C324   H379    1.140   .     S
C325   C326    1.391   .     D
C325   H380    1.140   .     S
C326   H381    1.140   .     S
C327   C360    1.464   .     S
C328   N329    1.296   .     D
C328   C359    1.464   .     S
C328   H382    1.140   .     S
N329   C330    1.430   .     S
C330   C363    1.398   .     S
C331   C332    1.397   .     D
C331   C362    1.398   .     S
C331   H383    1.140   .     S
C332   H384    1.140   .     S
C333   H385    1.140   .     S
C334   C335    1.412   .     S
C334   H386    1.140   .     S
C335   C336    1.424   .     D
C336   C337    1.423   .     S
C337   C365    1.422   .     S
C338   C339    1.412   .     D
C338   C366    1.422   .     S
C340   H387    1.140   .     S
C341   C342    1.391   .     S
C341   H388    1.140   .     S
C342   H389    1.140   .     S
C344   N345    1.296   .     D
C344   H390    1.140   .     S
N345   C346    1.431   .     S
C347   C348    1.397   .     D
C347   H391    1.140   .     S
C348   H392    1.140   .     S
C349   H393    1.140   .     S
C349   C49     1.385   1_545 D
C350   C351    1.412   .     D
C350   H394    1.140   .     S
C351   C352    1.424   .     S
C351   C51     1.413   1_565 S
C352   C353    1.423   .     D
C353   C367    1.422   .     S
C353   C53     1.422   1_565 S
C354   C355    1.412   .     S
C354   C368    1.422   .     D
C356   H395    1.140   .     S
C357   C358    1.391   .     D
C357   H396    1.140   .     S
C358   H397    1.140   .     S
C360   N361    1.296   .     D
C360   H398    1.140   .     S
N361   C362    1.430   .     S
C363   H399    1.140   .     S
C363   C364    1.397   1_655 D
C364   H400    1.140   .     S
C364   C363    1.397   1_455 D
