data_937
_audit_creation_date              2023-09-08
_audit_creation_method            'Materials Studio'
_symmetry_space_group_name_H-M    'P1'
_symmetry_Int_Tables_number       1
_symmetry_cell_setting            triclinic
loop_
_symmetry_equiv_pos_as_xyz
  x,y,z
_cell_length_a                    40.2092
_cell_length_b                    62.6350
_cell_length_c                    7.1413
_cell_angle_alpha                 90.0000
_cell_angle_beta                  86.5299
_cell_angle_gamma                 90.0000
loop_
_atom_site_label
_atom_site_type_symbol
_atom_site_fract_x
_atom_site_fract_y
_atom_site_fract_z
_atom_site_U_iso_or_equiv
_atom_site_adp_type
_atom_site_occupancy
C1     C     0.89132   0.98628  -0.12385   0.00000  Uiso   1.00
C2     C     0.87808   0.96846  -0.20041   0.00000  Uiso   1.00
C3     C     0.89604   0.95692  -0.34851   0.00000  Uiso   1.00
C4     C     0.92802   0.96433  -0.41837   0.00000  Uiso   1.00
C5     C     0.94165   0.98212  -0.34220   0.00000  Uiso   1.00
C6     C     0.92349   0.99306  -0.19252   0.00000  Uiso   1.00
N7     N     0.85481   0.93066  -0.33803   0.00000  Uiso   1.00
C8     C     0.88218   0.93804  -0.42614   0.00000  Uiso   1.00
C9     C     0.81749   0.90309  -0.21298   0.00000  Uiso   1.00
C10    C     0.83818   0.90188  -0.54294   0.00000  Uiso   1.00
C11    C     0.83719   0.91205  -0.36744   0.00000  Uiso   1.00
C12    C     0.98242   0.99200   0.01057   0.00000  Uiso   1.00
C13    C     0.93726   0.01274  -0.11402   0.00000  Uiso   1.00
C14    C     0.94236   0.04143  -0.35817   0.00000  Uiso   1.00
C15    C     0.92973   0.05907  -0.44153   0.00000  Uiso   1.00
C16    C     0.89923   0.06820  -0.36590   0.00000  Uiso   1.00
C17    C     0.88199   0.05906  -0.20311   0.00000  Uiso   1.00
C18    C     0.89405   0.04124  -0.12042   0.00000  Uiso   1.00
C19    C     0.92460   0.03246  -0.19678   0.00000  Uiso   1.00
N20    N     0.89472   0.09378  -0.60931   0.00000  Uiso   1.00
C21    C     0.88416   0.08652  -0.44310   0.00000  Uiso   1.00
C22    C     0.88343   0.13172  -0.58676   0.00000  Uiso   1.00
C23    C     0.84376   0.10809  -0.70831   0.00000  Uiso   1.00
C24    C     0.87502   0.11125  -0.64518   0.00000  Uiso   1.00
C25    C     0.39521   0.48062  -0.15624   0.00000  Uiso   1.00
C26    C     0.38049   0.46223  -0.21423   0.00000  Uiso   1.00
C27    C     0.39630   0.44954  -0.36071   0.00000  Uiso   1.00
C28    C     0.42764   0.45628  -0.44867   0.00000  Uiso   1.00
C29    C     0.44263   0.47465  -0.39164   0.00000  Uiso   1.00
C30    C     0.42675   0.48682  -0.24275   0.00000  Uiso   1.00
C31    C     0.45972   0.53898  -0.38794   0.00000  Uiso   1.00
C32    C     0.45223   0.55598  -0.49884   0.00000  Uiso   1.00
C33    C     0.41926   0.56018  -0.53241   0.00000  Uiso   1.00
C34    C     0.39424   0.54636  -0.44888   0.00000  Uiso   1.00
C35    C     0.40146   0.52967  -0.33417   0.00000  Uiso   1.00
C36    C     0.43442   0.52585  -0.29915   0.00000  Uiso   1.00
N37    N     0.38274   0.57896  -0.70563   0.00000  Uiso   1.00
C38    C     0.41199   0.57804  -0.64916   0.00000  Uiso   1.00
N39    N     0.39322   0.41787  -0.54290   0.00000  Uiso   1.00
C40    C     0.37950   0.43035  -0.41130   0.00000  Uiso   1.00
C41    C     0.37325   0.61730  -0.67056   0.00000  Uiso   1.00
C42    C     0.33198   0.59479  -0.77004   0.00000  Uiso   1.00
C43    C     0.36298   0.59736  -0.71685   0.00000  Uiso   1.00
C44    C     0.35346   0.39619  -0.69118   0.00000  Uiso   1.00
C45    C     0.38084   0.38145  -0.43891   0.00000  Uiso   1.00
C46    C     0.37656   0.39852  -0.56082   0.00000  Uiso   1.00
C47    C     0.53400   0.50711   0.05682   0.00000  Uiso   1.00
C48    C     0.51731   0.48642   0.00753   0.00000  Uiso   1.00
C49    C     0.44245   0.50690  -0.18254   0.00000  Uiso   1.00
C50    C     0.03577   0.01274   0.01358   0.00000  Uiso   1.00
C51    C     0.81982   0.69996  -0.10948   0.00000  Uiso   1.00
C52    C     0.85395   0.69655  -0.14276   0.00000  Uiso   1.00
C53    C     0.87618   0.70546  -0.02662   0.00000  Uiso   1.00
C54    C     0.86211   0.71709   0.13138   0.00000  Uiso   1.00
C55    C     0.82798   0.71992   0.16967   0.00000  Uiso   1.00
C56    C     0.80636   0.71209   0.04596   0.00000  Uiso   1.00
C57    C     0.73345   0.68400   0.19271   0.00000  Uiso   1.00
C58    C     0.71572   0.67255   0.33725   0.00000  Uiso   1.00
C59    C     0.71649   0.67829   0.52699   0.00000  Uiso   1.00
C60    C     0.73767   0.69506   0.56587   0.00000  Uiso   1.00
C61    C     0.75613   0.70619   0.42317   0.00000  Uiso   1.00
C62    C     0.75291   0.70159   0.23466   0.00000  Uiso   1.00
N63    N     0.70248   0.64841   0.71941   0.00000  Uiso   1.00
C64    C     0.69628   0.66809   0.68170   0.00000  Uiso   1.00
N65    N     0.93179   0.71786  -0.03650   0.00000  Uiso   1.00
C66    C     0.91192   0.70227  -0.06775   0.00000  Uiso   1.00
C67    C     0.64773   0.63430   0.67423   0.00000  Uiso   1.00
C68    C     0.68907   0.61171   0.77166   0.00000  Uiso   1.00
C69    C     0.67922   0.63155   0.72230   0.00000  Uiso   1.00
C70    C     0.98337   0.69801  -0.00984   0.00000  Uiso   1.00
C71    C     0.98334   0.73554  -0.00762   0.00000  Uiso   1.00
C72    C     0.96637   0.71682  -0.01782   0.00000  Uiso   1.00
C73    C     0.71335   0.75133  -0.29615   0.00000  Uiso   1.00
C74    C     0.75103   0.75130  -0.31985   0.00000  Uiso   1.00
C75    C     0.76922   0.74350  -0.17737   0.00000  Uiso   1.00
C76    C     0.76936   0.71592   0.08365   0.00000  Uiso   1.00
C77    C     0.33608   0.19887  -0.12969   0.00000  Uiso   1.00
C78    C     0.37027   0.20156  -0.14940   0.00000  Uiso   1.00
C79    C     0.38497   0.22197  -0.17063   0.00000  Uiso   1.00
C80    C     0.36336   0.23955  -0.17640   0.00000  Uiso   1.00
C81    C     0.32902   0.23710  -0.15110   0.00000  Uiso   1.00
C82    C     0.31488   0.21667  -0.12522   0.00000  Uiso   1.00
C83    C     0.23401   0.21751   0.17204   0.00000  Uiso   1.00
C84    C     0.21294   0.20825   0.31472   0.00000  Uiso   1.00
C85    C     0.21953   0.18783   0.38227   0.00000  Uiso   1.00
C86    C     0.25007   0.17809   0.31523   0.00000  Uiso   1.00
C87    C     0.27068   0.18687   0.16684   0.00000  Uiso   1.00
C88    C     0.26153   0.20607   0.08503   0.00000  Uiso   1.00
N89    N     0.19874   0.15870   0.57034   0.00000  Uiso   1.00
C90    C     0.19407   0.17783   0.51110   0.00000  Uiso   1.00
N91    N     0.43921   0.20905  -0.14720   0.00000  Uiso   1.00
C92    C     0.42076   0.22507  -0.18527   0.00000  Uiso   1.00
C93    C     0.14006   0.14787   0.57217   0.00000  Uiso   1.00
C94    C     0.17966   0.12431   0.69399   0.00000  Uiso   1.00
C95    C     0.17268   0.14415   0.61632   0.00000  Uiso   1.00
C96    C     0.48526   0.19125  -0.03705   0.00000  Uiso   1.00
C97    C     0.48516   0.22886  -0.03634   0.00000  Uiso   1.00
C98    C     0.47017   0.21001  -0.07414   0.00000  Uiso   1.00
C99    C     0.21619   0.25103  -0.36568   0.00000  Uiso   1.00
C100   C     0.25029   0.24743  -0.47468   0.00000  Uiso   1.00
C101   C     0.27087   0.23133  -0.41299   0.00000  Uiso   1.00
C102   C     0.27774   0.21369  -0.10251   0.00000  Uiso   1.00
C103   C     0.78466   0.30283   0.54771   0.00000  Uiso   1.00
C104   C     0.76337   0.31902   0.61809   0.00000  Uiso   1.00
C105   C     0.73351   0.32335   0.54170   0.00000  Uiso   1.00
C106   C     0.72618   0.31074   0.38892   0.00000  Uiso   1.00
C107   C     0.74719   0.29455   0.31729   0.00000  Uiso   1.00
C108   C     0.77650   0.29025   0.39737   0.00000  Uiso   1.00
C109   C     0.85155   0.29048   0.25395   0.00000  Uiso   1.00
C110   C     0.88051   0.29478   0.13687   0.00000  Uiso   1.00
C111   C     0.88795   0.28450  -0.03802   0.00000  Uiso   1.00
C112   C     0.86418   0.26994  -0.09055   0.00000  Uiso   1.00
C113   C     0.83488   0.26575   0.02478   0.00000  Uiso   1.00
C114   C     0.82833   0.27563   0.20158   0.00000  Uiso   1.00
N115   N     0.93704   0.30467  -0.12473   0.00000  Uiso   1.00
C116   C     0.91876   0.28843  -0.15965   0.00000  Uiso   1.00
N117   N     0.68419   0.34353   0.54477   0.00000  Uiso   1.00
C118   C     0.71134   0.34012   0.61982   0.00000  Uiso   1.00
C119   C     0.98466   0.28490  -0.03112   0.00000  Uiso   1.00
C120   C     0.98472   0.32255  -0.03130   0.00000  Uiso   1.00
C121   C     0.96909   0.30377  -0.06288   0.00000  Uiso   1.00
C122   C     0.66603   0.37798   0.69224   0.00000  Uiso   1.00
C123   C     0.63855   0.36325   0.44044   0.00000  Uiso   1.00
C124   C     0.66305   0.36135   0.56303   0.00000  Uiso   1.00
C125   C     0.74208   0.21915   0.23869   0.00000  Uiso   1.00
C126   C     0.79680   0.27114   0.33076   0.00000  Uiso   1.00
C127   C     0.28674   0.79905   0.59140   0.00000  Uiso   1.00
C128   C     0.26918   0.81778   0.63470   0.00000  Uiso   1.00
C129   C     0.24909   0.82697   0.50834   0.00000  Uiso   1.00
C130   C     0.24749   0.81645   0.33571   0.00000  Uiso   1.00
C131   C     0.26482   0.79781   0.29123   0.00000  Uiso   1.00
C132   C     0.28420   0.78866   0.42004   0.00000  Uiso   1.00
C133   C     0.35533   0.76332   0.51653   0.00000  Uiso   1.00
C134   C     0.38873   0.76740   0.52718   0.00000  Uiso   1.00
C135   C     0.40759   0.78027   0.39297   0.00000  Uiso   1.00
C136   C     0.39135   0.78797   0.24215   0.00000  Uiso   1.00
C137   C     0.35816   0.78346   0.22779   0.00000  Uiso   1.00
C138   C     0.33973   0.77101   0.36556   0.00000  Uiso   1.00
N139   N     0.45559   0.80184   0.32830   0.00000  Uiso   1.00
C140   C     0.44198   0.78538   0.41605   0.00000  Uiso   1.00
N141   N     0.21774   0.85555   0.41532   0.00000  Uiso   1.00
C142   C     0.23099   0.84667   0.55135   0.00000  Uiso   1.00
C143   C     0.48919   0.78222   0.08029   0.00000  Uiso   1.00
C144   C     0.48923   0.81982   0.08065   0.00000  Uiso   1.00
C145   C     0.47829   0.80104   0.16248   0.00000  Uiso   1.00
C146   C     0.20027   0.88453   0.23177   0.00000  Uiso   1.00
C147   C     0.18000   0.88338   0.56235   0.00000  Uiso   1.00
C148   C     0.19950   0.87437   0.40650   0.00000  Uiso   1.00
C149   C     0.24831   0.73029   0.01556   0.00000  Uiso   1.00
C150   C     0.30285   0.76840   0.36751   0.00000  Uiso   1.00
C151   C     0.98243   0.03350   0.00996   0.00000  Uiso   1.00
C152   C     0.48298   0.52782  -0.01405   0.00000  Uiso   1.00
C153   C     0.71323   0.73013   0.00399   0.00000  Uiso   1.00
C154   C     0.69586   0.73695  -0.14666   0.00000  Uiso   1.00
C155   C     0.22050   0.21555  -0.21313   0.00000  Uiso   1.00
C156   C     0.19978   0.23127  -0.27868   0.00000  Uiso   1.00
C157   C     0.76766   0.75965  -0.48442   0.00000  Uiso   1.00
C158   C     0.80222   0.76339  -0.50522   0.00000  Uiso   1.00
C159   C     0.82042   0.75787  -0.35167   0.00000  Uiso   1.00
C160   C     0.80308   0.74833  -0.19063   0.00000  Uiso   1.00
C161   C     0.69431   0.72322   0.16749   0.00000  Uiso   1.00
C162   C     0.65986   0.71900   0.17605   0.00000  Uiso   1.00
C163   C     0.64350   0.72302   0.01226   0.00000  Uiso   1.00
C164   C     0.66224   0.73224  -0.14540   0.00000  Uiso   1.00
C165   C     0.85541   0.76144  -0.37122   0.00000  Uiso   1.00
C166   C     0.87151   0.77029  -0.53442   0.00000  Uiso   1.00
C167   C     0.85358   0.77599  -0.68266   0.00000  Uiso   1.00
C168   C     0.81946   0.77275  -0.66907   0.00000  Uiso   1.00
C169   C     0.60862   0.71945   0.02186   0.00000  Uiso   1.00
C170   C     0.59067   0.71233   0.18692   0.00000  Uiso   1.00
C171   C     0.60668   0.70821   0.34626   0.00000  Uiso   1.00
C172   C     0.64072   0.71131   0.34145   0.00000  Uiso   1.00
C173   C     0.26175   0.25941  -0.63205   0.00000  Uiso   1.00
C174   C     0.29547   0.25847  -0.70959   0.00000  Uiso   1.00
C175   C     0.31632   0.24184  -0.64673   0.00000  Uiso   1.00
C176   C     0.30211   0.22739  -0.50931   0.00000  Uiso   1.00
C177   C     0.35144   0.24343  -0.69218   0.00000  Uiso   1.00
C178   C     0.36555   0.26129  -0.78408   0.00000  Uiso   1.00
C179   C     0.34536   0.27746  -0.84458   0.00000  Uiso   1.00
C180   C     0.31094   0.27587  -0.81341   0.00000  Uiso   1.00
C181   C     0.20648   0.19721  -0.12915   0.00000  Uiso   1.00
C182   C     0.17155   0.19441  -0.09992   0.00000  Uiso   1.00
C183   C     0.15051   0.21010  -0.17538   0.00000  Uiso   1.00
C184   C     0.16558   0.22832  -0.26512   0.00000  Uiso   1.00
C185   C     0.11580   0.20590  -0.16724   0.00000  Uiso   1.00
C186   C     0.10246   0.18719  -0.08738   0.00000  Uiso   1.00
C187   C     0.12276   0.17227  -0.01001   0.00000  Uiso   1.00
C188   C     0.15664   0.17582  -0.01349   0.00000  Uiso   1.00
C189   C     0.48208   0.44745   0.01057   0.00000  Uiso   1.00
C190   C     0.46541   0.46721   0.00998   0.00000  Uiso   1.00
C191   C     0.46496   0.42763   0.02193   0.00000  Uiso   1.00
C192   C     0.48253   0.40860   0.01106   0.00000  Uiso   1.00
C193   C     0.51765   0.56680   0.00651   0.00000  Uiso   1.00
C194   C     0.53429   0.54703   0.00958   0.00000  Uiso   1.00
C195   C     0.46601   0.58664  -0.02436   0.00000  Uiso   1.00
C196   C     0.48312   0.60568  -0.01374   0.00000  Uiso   1.00
C197   C     0.96531   0.97287   0.04134   0.00000  Uiso   1.00
C198   C     0.01781   0.95311  -0.02560   0.00000  Uiso   1.00
C199   C     0.96525   0.93329   0.05016   0.00000  Uiso   1.00
C200   C     0.98269   0.91427   0.02494   0.00000  Uiso   1.00
C201   C     0.01781   0.07244  -0.02444   0.00000  Uiso   1.00
C202   C     0.03463   0.05266  -0.04014   0.00000  Uiso   1.00
C203   C     0.96522   0.09228   0.04655   0.00000  Uiso   1.00
C204   C     0.98265   0.11132   0.02311   0.00000  Uiso   1.00
H205   H     0.87607   0.99538  -0.00543   0.00000  Uiso   1.00
H206   H     0.85200   0.96270  -0.14417   0.00000  Uiso   1.00
H207   H     0.94314   0.95563  -0.53973   0.00000  Uiso   1.00
H208   H     0.96761   0.98789  -0.40093   0.00000  Uiso   1.00
H209   H     0.89538   0.93041  -0.55907   0.00000  Uiso   1.00
H210   H     0.81599   0.91115  -0.06958   0.00000  Uiso   1.00
H211   H     0.85402   0.90885  -0.67078   0.00000  Uiso   1.00
H212   H     0.96715   0.03419  -0.42044   0.00000  Uiso   1.00
H213   H     0.94407   0.06637  -0.57284   0.00000  Uiso   1.00
H214   H     0.85752   0.06640  -0.13700   0.00000  Uiso   1.00
H215   H     0.87920   0.03381   0.00863   0.00000  Uiso   1.00
H216   H     0.86240   0.09502  -0.35799   0.00000  Uiso   1.00
H217   H     0.90974   0.13507  -0.55113   0.00000  Uiso   1.00
H218   H     0.83758   0.09208  -0.77178   0.00000  Uiso   1.00
H219   H     0.38174   0.49071  -0.03835   0.00000  Uiso   1.00
H220   H     0.35498   0.45706  -0.14313   0.00000  Uiso   1.00
H221   H     0.44109   0.44654  -0.56907   0.00000  Uiso   1.00
H222   H     0.46788   0.47990  -0.46565   0.00000  Uiso   1.00
H223   H     0.48678   0.53547  -0.36755   0.00000  Uiso   1.00
H224   H     0.47299   0.56690  -0.56497   0.00000  Uiso   1.00
H225   H     0.36718   0.54879  -0.47526   0.00000  Uiso   1.00
H226   H     0.38057   0.51890  -0.26721   0.00000  Uiso   1.00
H227   H     0.43177   0.59078  -0.68878   0.00000  Uiso   1.00
H228   H     0.35394   0.42606  -0.33527   0.00000  Uiso   1.00
H229   H     0.39939   0.61970  -0.62883   0.00000  Uiso   1.00
H230   H     0.32349   0.57834  -0.81371   0.00000  Uiso   1.00
H231   H     0.35058   0.40937  -0.79789   0.00000  Uiso   1.00
H232   H     0.40049   0.38250  -0.33727   0.00000  Uiso   1.00
H233   H     0.80259   0.69289  -0.20852   0.00000  Uiso   1.00
H234   H     0.86472   0.68631  -0.26688   0.00000  Uiso   1.00
H235   H     0.87894   0.72443   0.23127   0.00000  Uiso   1.00
H236   H     0.81720   0.72868   0.30263   0.00000  Uiso   1.00
H237   H     0.73220   0.67913   0.04042   0.00000  Uiso   1.00
H238   H     0.70011   0.65817   0.30383   0.00000  Uiso   1.00
H239   H     0.73989   0.69973   0.71763   0.00000  Uiso   1.00
H240   H     0.77414   0.71922   0.45820   0.00000  Uiso   1.00
H241   H     0.67546   0.67741   0.76717   0.00000  Uiso   1.00
H242   H     0.92205   0.68632  -0.12634   0.00000  Uiso   1.00
H243   H     0.63889   0.65090   0.63693   0.00000  Uiso   1.00
H244   H     0.71511   0.60925   0.81464   0.00000  Uiso   1.00
H245   H     0.96979   0.68214  -0.01965   0.00000  Uiso   1.00
H246   H     0.96964   0.75143  -0.01182   0.00000  Uiso   1.00
H247   H     0.32494   0.18212  -0.11695   0.00000  Uiso   1.00
H248   H     0.38735   0.18705  -0.14875   0.00000  Uiso   1.00
H249   H     0.37403   0.25630  -0.20241   0.00000  Uiso   1.00
H250   H     0.31215   0.25171  -0.15124   0.00000  Uiso   1.00
H251   H     0.22910   0.23449   0.12449   0.00000  Uiso   1.00
H252   H     0.18979   0.21719   0.37956   0.00000  Uiso   1.00
H253   H     0.25811   0.16277   0.38330   0.00000  Uiso   1.00
H254   H     0.29498   0.17852   0.11138   0.00000  Uiso   1.00
H255   H     0.17002   0.18681   0.56003   0.00000  Uiso   1.00
H256   H     0.43201   0.24127  -0.22930   0.00000  Uiso   1.00
H257   H     0.13275   0.16438   0.52366   0.00000  Uiso   1.00
H258   H     0.20489   0.12141   0.74623   0.00000  Uiso   1.00
H259   H     0.47315   0.17539  -0.06819   0.00000  Uiso   1.00
H260   H     0.47281   0.24470  -0.06570   0.00000  Uiso   1.00
H261   H     0.80876   0.29973   0.61177   0.00000  Uiso   1.00
H262   H     0.76987   0.32919   0.74062   0.00000  Uiso   1.00
H263   H     0.70241   0.31379   0.32146   0.00000  Uiso   1.00
H264   H     0.74068   0.28469   0.19295   0.00000  Uiso   1.00
H265   H     0.84634   0.29905   0.39475   0.00000  Uiso   1.00
H266   H     0.89915   0.30693   0.18089   0.00000  Uiso   1.00
H267   H     0.86880   0.26125  -0.23102   0.00000  Uiso   1.00
H268   H     0.81576   0.25420  -0.02328   0.00000  Uiso   1.00
H269   H     0.92650   0.27733  -0.28328   0.00000  Uiso   1.00
H270   H     0.71800   0.34992   0.74421   0.00000  Uiso   1.00
H271   H     0.97199   0.26906  -0.05666   0.00000  Uiso   1.00
H272   H     0.97218   0.33842  -0.05734   0.00000  Uiso   1.00
H273   H     0.68465   0.37655   0.79944   0.00000  Uiso   1.00
H274   H     0.63439   0.34966   0.33992   0.00000  Uiso   1.00
H275   H     0.30325   0.79210   0.69484   0.00000  Uiso   1.00
H276   H     0.27082   0.82605   0.77502   0.00000  Uiso   1.00
H277   H     0.23158   0.82335   0.22900   0.00000  Uiso   1.00
H278   H     0.26340   0.78982   0.14945   0.00000  Uiso   1.00
H279   H     0.34022   0.75361   0.63138   0.00000  Uiso   1.00
H280   H     0.40152   0.76028   0.64644   0.00000  Uiso   1.00
H281   H     0.40562   0.79821   0.12800   0.00000  Uiso   1.00
H282   H     0.34586   0.78987   0.10391   0.00000  Uiso   1.00
H283   H     0.45633   0.77499   0.50968   0.00000  Uiso   1.00
H284   H     0.22898   0.85358   0.69942   0.00000  Uiso   1.00
H285   H     0.48016   0.76637   0.14635   0.00000  Uiso   1.00
H286   H     0.48035   0.83567   0.14726   0.00000  Uiso   1.00
H287   H     0.21569   0.87746   0.10295   0.00000  Uiso   1.00
H288   H     0.17904   0.87547   0.70617   0.00000  Uiso   1.00
H289   H     0.75248   0.76349  -0.60462   0.00000  Uiso   1.00
H290   H     0.81681   0.74429  -0.06499   0.00000  Uiso   1.00
H291   H     0.70764   0.72099   0.29777   0.00000  Uiso   1.00
H292   H     0.64983   0.73602  -0.27642   0.00000  Uiso   1.00
H293   H     0.87048   0.75702  -0.25197   0.00000  Uiso   1.00
H294   H     0.89964   0.77300  -0.54908   0.00000  Uiso   1.00
H295   H     0.86709   0.78337  -0.81593   0.00000  Uiso   1.00
H296   H     0.80521   0.77763  -0.79046   0.00000  Uiso   1.00
H297   H     0.59515   0.72243  -0.10685   0.00000  Uiso   1.00
H298   H     0.56258   0.70978   0.19405   0.00000  Uiso   1.00
H299   H     0.59165   0.70226   0.48094   0.00000  Uiso   1.00
H300   H     0.65339   0.70763   0.47176   0.00000  Uiso   1.00
H301   H     0.24353   0.27011  -0.69867   0.00000  Uiso   1.00
H302   H     0.31631   0.21235  -0.47679   0.00000  Uiso   1.00
H303   H     0.36806   0.22984  -0.65234   0.00000  Uiso   1.00
H304   H     0.39385   0.26292  -0.81108   0.00000  Uiso   1.00
H305   H     0.35725   0.29209  -0.92015   0.00000  Uiso   1.00
H306   H     0.29470   0.28859  -0.87127   0.00000  Uiso   1.00
H307   H     0.22367   0.18426  -0.08338   0.00000  Uiso   1.00
H308   H     0.14957   0.24083  -0.32757   0.00000  Uiso   1.00
H309   H     0.09870   0.21799  -0.22675   0.00000  Uiso   1.00
H310   H     0.07464   0.18380  -0.08411   0.00000  Uiso   1.00
H311   H     0.11139   0.15700   0.05669   0.00000  Uiso   1.00
H312   H     0.17262   0.16367   0.05382   0.00000  Uiso   1.00
H313   H     0.43698   0.46771   0.02414   0.00000  Uiso   1.00
H314   H     0.43651   0.42729   0.04014   0.00000  Uiso   1.00
H315   H     0.46856   0.39273   0.02013   0.00000  Uiso   1.00
H316   H     0.56256   0.54657   0.00840   0.00000  Uiso   1.00
H317   H     0.43855   0.58680  -0.04764   0.00000  Uiso   1.00
H318   H     0.46971   0.62154  -0.02739   0.00000  Uiso   1.00
H319   H     0.93709   0.97293   0.08013   0.00000  Uiso   1.00
H320   H     0.93708   0.93308   0.09097   0.00000  Uiso   1.00
H321   H     0.96888   0.89839   0.04475   0.00000  Uiso   1.00
H322   H     0.06286   0.05219  -0.07837   0.00000  Uiso   1.00
H323   H     0.93697   0.09246   0.08398   0.00000  Uiso   1.00
H324   H     0.96876   0.12719   0.04141   0.00000  Uiso   1.00
C325   C     0.10868   0.98628   0.12385   0.00000  Uiso   1.00
C326   C     0.12192   0.96846   0.20041   0.00000  Uiso   1.00
C327   C     0.10396   0.95692   0.34851   0.00000  Uiso   1.00
C328   C     0.07198   0.96433   0.41837   0.00000  Uiso   1.00
C329   C     0.05835   0.98212   0.34220   0.00000  Uiso   1.00
C330   C     0.07651   0.99306   0.19252   0.00000  Uiso   1.00
N331   N     0.14519   0.93066   0.33803   0.00000  Uiso   1.00
C332   C     0.11782   0.93804   0.42614   0.00000  Uiso   1.00
C333   C     0.18251   0.90309   0.21298   0.00000  Uiso   1.00
C334   C     0.16182   0.90188   0.54294   0.00000  Uiso   1.00
C335   C     0.16281   0.91205   0.36744   0.00000  Uiso   1.00
C336   C     0.01758   0.99200  -0.01057   0.00000  Uiso   1.00
C337   C     0.06274   0.01274   0.11402   0.00000  Uiso   1.00
C338   C     0.05764   0.04143   0.35817   0.00000  Uiso   1.00
C339   C     0.07027   0.05907   0.44153   0.00000  Uiso   1.00
C340   C     0.10077   0.06820   0.36590   0.00000  Uiso   1.00
C341   C     0.11801   0.05906   0.20311   0.00000  Uiso   1.00
C342   C     0.10595   0.04124   0.12042   0.00000  Uiso   1.00
C343   C     0.07540   0.03246   0.19678   0.00000  Uiso   1.00
N344   N     0.10528   0.09378   0.60931   0.00000  Uiso   1.00
C345   C     0.11584   0.08652   0.44310   0.00000  Uiso   1.00
C346   C     0.11657   0.13172   0.58676   0.00000  Uiso   1.00
C347   C     0.15624   0.10809   0.70831   0.00000  Uiso   1.00
C348   C     0.12498   0.11125   0.64518   0.00000  Uiso   1.00
C349   C     0.60479   0.48062   0.15624   0.00000  Uiso   1.00
C350   C     0.61951   0.46223   0.21423   0.00000  Uiso   1.00
C351   C     0.60370   0.44954   0.36071   0.00000  Uiso   1.00
C352   C     0.57236   0.45628   0.44867   0.00000  Uiso   1.00
C353   C     0.55737   0.47465   0.39164   0.00000  Uiso   1.00
C354   C     0.57325   0.48682   0.24275   0.00000  Uiso   1.00
C355   C     0.54028   0.53898   0.38794   0.00000  Uiso   1.00
C356   C     0.54777   0.55598   0.49884   0.00000  Uiso   1.00
C357   C     0.58074   0.56018   0.53241   0.00000  Uiso   1.00
C358   C     0.60576   0.54636   0.44888   0.00000  Uiso   1.00
C359   C     0.59854   0.52967   0.33417   0.00000  Uiso   1.00
C360   C     0.56558   0.52585   0.29915   0.00000  Uiso   1.00
N361   N     0.61726   0.57896   0.70563   0.00000  Uiso   1.00
C362   C     0.58801   0.57804   0.64916   0.00000  Uiso   1.00
N363   N     0.60678   0.41787   0.54290   0.00000  Uiso   1.00
C364   C     0.62050   0.43035   0.41130   0.00000  Uiso   1.00
C365   C     0.62675   0.61730   0.67056   0.00000  Uiso   1.00
C366   C     0.66802   0.59479   0.77004   0.00000  Uiso   1.00
C367   C     0.63702   0.59736   0.71685   0.00000  Uiso   1.00
C368   C     0.64654   0.39619   0.69118   0.00000  Uiso   1.00
C369   C     0.61916   0.38145   0.43891   0.00000  Uiso   1.00
C370   C     0.62344   0.39852   0.56082   0.00000  Uiso   1.00
C371   C     0.46600   0.50711  -0.05682   0.00000  Uiso   1.00
C372   C     0.48269   0.48642  -0.00753   0.00000  Uiso   1.00
C373   C     0.55755   0.50690   0.18254   0.00000  Uiso   1.00
C374   C     0.96423   0.01274  -0.01358   0.00000  Uiso   1.00
C375   C     0.18018   0.69996   0.10948   0.00000  Uiso   1.00
C376   C     0.14605   0.69655   0.14276   0.00000  Uiso   1.00
C377   C     0.12382   0.70546   0.02662   0.00000  Uiso   1.00
C378   C     0.13789   0.71709  -0.13138   0.00000  Uiso   1.00
C379   C     0.17202   0.71992  -0.16967   0.00000  Uiso   1.00
C380   C     0.19364   0.71209  -0.04596   0.00000  Uiso   1.00
C381   C     0.26655   0.68400  -0.19271   0.00000  Uiso   1.00
C382   C     0.28428   0.67255  -0.33725   0.00000  Uiso   1.00
C383   C     0.28351   0.67829  -0.52699   0.00000  Uiso   1.00
C384   C     0.26233   0.69506  -0.56587   0.00000  Uiso   1.00
C385   C     0.24387   0.70619  -0.42317   0.00000  Uiso   1.00
C386   C     0.24709   0.70159  -0.23466   0.00000  Uiso   1.00
N387   N     0.29752   0.64841  -0.71941   0.00000  Uiso   1.00
C388   C     0.30372   0.66809  -0.68170   0.00000  Uiso   1.00
N389   N     0.06821   0.71786   0.03650   0.00000  Uiso   1.00
C390   C     0.08808   0.70227   0.06775   0.00000  Uiso   1.00
C391   C     0.35227   0.63430  -0.67423   0.00000  Uiso   1.00
C392   C     0.31093   0.61171  -0.77166   0.00000  Uiso   1.00
C393   C     0.32078   0.63155  -0.72230   0.00000  Uiso   1.00
C394   C     0.01663   0.69801   0.00984   0.00000  Uiso   1.00
C395   C     0.01666   0.73554   0.00762   0.00000  Uiso   1.00
C396   C     0.03363   0.71682   0.01782   0.00000  Uiso   1.00
C397   C     0.28665   0.75133   0.29615   0.00000  Uiso   1.00
C398   C     0.24897   0.75130   0.31985   0.00000  Uiso   1.00
C399   C     0.23078   0.74350   0.17737   0.00000  Uiso   1.00
C400   C     0.23064   0.71592  -0.08365   0.00000  Uiso   1.00
C401   C     0.66392   0.19887   0.12969   0.00000  Uiso   1.00
C402   C     0.62973   0.20156   0.14940   0.00000  Uiso   1.00
C403   C     0.61503   0.22197   0.17063   0.00000  Uiso   1.00
C404   C     0.63664   0.23955   0.17640   0.00000  Uiso   1.00
C405   C     0.67098   0.23710   0.15110   0.00000  Uiso   1.00
C406   C     0.68512   0.21667   0.12522   0.00000  Uiso   1.00
C407   C     0.76599   0.21751  -0.17204   0.00000  Uiso   1.00
C408   C     0.78706   0.20825  -0.31472   0.00000  Uiso   1.00
C409   C     0.78047   0.18783  -0.38227   0.00000  Uiso   1.00
C410   C     0.74993   0.17809  -0.31523   0.00000  Uiso   1.00
C411   C     0.72932   0.18687  -0.16684   0.00000  Uiso   1.00
C412   C     0.73847   0.20607  -0.08503   0.00000  Uiso   1.00
N413   N     0.80126   0.15870  -0.57034   0.00000  Uiso   1.00
C414   C     0.80593   0.17783  -0.51110   0.00000  Uiso   1.00
N415   N     0.56079   0.20905   0.14720   0.00000  Uiso   1.00
C416   C     0.57924   0.22507   0.18527   0.00000  Uiso   1.00
C417   C     0.85994   0.14787  -0.57217   0.00000  Uiso   1.00
C418   C     0.82034   0.12431  -0.69399   0.00000  Uiso   1.00
C419   C     0.82732   0.14415  -0.61632   0.00000  Uiso   1.00
C420   C     0.51474   0.19125   0.03705   0.00000  Uiso   1.00
C421   C     0.51484   0.22886   0.03634   0.00000  Uiso   1.00
C422   C     0.52983   0.21001   0.07414   0.00000  Uiso   1.00
C423   C     0.78381   0.25103   0.36568   0.00000  Uiso   1.00
C424   C     0.74971   0.24743   0.47468   0.00000  Uiso   1.00
C425   C     0.72913   0.23133   0.41299   0.00000  Uiso   1.00
C426   C     0.72226   0.21369   0.10251   0.00000  Uiso   1.00
C427   C     0.21534   0.30283  -0.54771   0.00000  Uiso   1.00
C428   C     0.23663   0.31902  -0.61809   0.00000  Uiso   1.00
C429   C     0.26649   0.32335  -0.54170   0.00000  Uiso   1.00
C430   C     0.27382   0.31074  -0.38892   0.00000  Uiso   1.00
C431   C     0.25281   0.29455  -0.31729   0.00000  Uiso   1.00
C432   C     0.22350   0.29025  -0.39737   0.00000  Uiso   1.00
C433   C     0.14845   0.29048  -0.25395   0.00000  Uiso   1.00
C434   C     0.11949   0.29478  -0.13687   0.00000  Uiso   1.00
C435   C     0.11205   0.28450   0.03802   0.00000  Uiso   1.00
C436   C     0.13582   0.26994   0.09055   0.00000  Uiso   1.00
C437   C     0.16512   0.26575  -0.02478   0.00000  Uiso   1.00
C438   C     0.17167   0.27563  -0.20158   0.00000  Uiso   1.00
N439   N     0.06296   0.30467   0.12473   0.00000  Uiso   1.00
C440   C     0.08124   0.28843   0.15965   0.00000  Uiso   1.00
N441   N     0.31581   0.34353  -0.54477   0.00000  Uiso   1.00
C442   C     0.28866   0.34012  -0.61982   0.00000  Uiso   1.00
C443   C     0.01534   0.28490   0.03112   0.00000  Uiso   1.00
C444   C     0.01528   0.32255   0.03130   0.00000  Uiso   1.00
C445   C     0.03091   0.30377   0.06288   0.00000  Uiso   1.00
C446   C     0.33397   0.37798  -0.69224   0.00000  Uiso   1.00
C447   C     0.36145   0.36325  -0.44044   0.00000  Uiso   1.00
C448   C     0.33695   0.36135  -0.56303   0.00000  Uiso   1.00
C449   C     0.25792   0.21915  -0.23869   0.00000  Uiso   1.00
C450   C     0.20320   0.27114  -0.33076   0.00000  Uiso   1.00
C451   C     0.71326   0.79905  -0.59140   0.00000  Uiso   1.00
C452   C     0.73082   0.81778  -0.63470   0.00000  Uiso   1.00
C453   C     0.75091   0.82697  -0.50834   0.00000  Uiso   1.00
C454   C     0.75251   0.81645  -0.33571   0.00000  Uiso   1.00
C455   C     0.73518   0.79781  -0.29123   0.00000  Uiso   1.00
C456   C     0.71580   0.78866  -0.42004   0.00000  Uiso   1.00
C457   C     0.64467   0.76332  -0.51653   0.00000  Uiso   1.00
C458   C     0.61127   0.76740  -0.52718   0.00000  Uiso   1.00
C459   C     0.59241   0.78027  -0.39297   0.00000  Uiso   1.00
C460   C     0.60865   0.78797  -0.24215   0.00000  Uiso   1.00
C461   C     0.64184   0.78346  -0.22779   0.00000  Uiso   1.00
C462   C     0.66027   0.77101  -0.36556   0.00000  Uiso   1.00
N463   N     0.54441   0.80184  -0.32830   0.00000  Uiso   1.00
C464   C     0.55802   0.78538  -0.41605   0.00000  Uiso   1.00
N465   N     0.78226   0.85555  -0.41532   0.00000  Uiso   1.00
C466   C     0.76901   0.84667  -0.55135   0.00000  Uiso   1.00
C467   C     0.51081   0.78222  -0.08029   0.00000  Uiso   1.00
C468   C     0.51077   0.81982  -0.08065   0.00000  Uiso   1.00
C469   C     0.52171   0.80104  -0.16248   0.00000  Uiso   1.00
C470   C     0.79973   0.88453  -0.23177   0.00000  Uiso   1.00
C471   C     0.82000   0.88338  -0.56235   0.00000  Uiso   1.00
C472   C     0.80050   0.87437  -0.40650   0.00000  Uiso   1.00
C473   C     0.75169   0.73029  -0.01556   0.00000  Uiso   1.00
C474   C     0.69715   0.76840  -0.36751   0.00000  Uiso   1.00
C475   C     0.01757   0.03350  -0.00996   0.00000  Uiso   1.00
C476   C     0.51702   0.52782   0.01405   0.00000  Uiso   1.00
C477   C     0.28677   0.73013  -0.00399   0.00000  Uiso   1.00
C478   C     0.30414   0.73695   0.14666   0.00000  Uiso   1.00
C479   C     0.77950   0.21555   0.21313   0.00000  Uiso   1.00
C480   C     0.80022   0.23127   0.27868   0.00000  Uiso   1.00
C481   C     0.23234   0.75965   0.48442   0.00000  Uiso   1.00
C482   C     0.19778   0.76339   0.50522   0.00000  Uiso   1.00
C483   C     0.17958   0.75787   0.35167   0.00000  Uiso   1.00
C484   C     0.19692   0.74833   0.19063   0.00000  Uiso   1.00
C485   C     0.30569   0.72322  -0.16749   0.00000  Uiso   1.00
C486   C     0.34014   0.71900  -0.17605   0.00000  Uiso   1.00
C487   C     0.35650   0.72302  -0.01226   0.00000  Uiso   1.00
C488   C     0.33776   0.73224   0.14540   0.00000  Uiso   1.00
C489   C     0.14459   0.76144   0.37122   0.00000  Uiso   1.00
C490   C     0.12849   0.77029   0.53442   0.00000  Uiso   1.00
C491   C     0.14642   0.77599   0.68266   0.00000  Uiso   1.00
C492   C     0.18054   0.77275   0.66907   0.00000  Uiso   1.00
C493   C     0.39138   0.71945  -0.02186   0.00000  Uiso   1.00
C494   C     0.40933   0.71233  -0.18692   0.00000  Uiso   1.00
C495   C     0.39332   0.70821  -0.34626   0.00000  Uiso   1.00
C496   C     0.35928   0.71131  -0.34145   0.00000  Uiso   1.00
C497   C     0.73825   0.25941   0.63205   0.00000  Uiso   1.00
C498   C     0.70453   0.25847   0.70959   0.00000  Uiso   1.00
C499   C     0.68368   0.24184   0.64673   0.00000  Uiso   1.00
C500   C     0.69789   0.22739   0.50931   0.00000  Uiso   1.00
C501   C     0.64856   0.24343   0.69218   0.00000  Uiso   1.00
C502   C     0.63445   0.26129   0.78408   0.00000  Uiso   1.00
C503   C     0.65464   0.27746   0.84458   0.00000  Uiso   1.00
C504   C     0.68906   0.27587   0.81341   0.00000  Uiso   1.00
C505   C     0.79352   0.19721   0.12915   0.00000  Uiso   1.00
C506   C     0.82845   0.19441   0.09992   0.00000  Uiso   1.00
C507   C     0.84949   0.21010   0.17538   0.00000  Uiso   1.00
C508   C     0.83442   0.22832   0.26512   0.00000  Uiso   1.00
C509   C     0.88420   0.20590   0.16724   0.00000  Uiso   1.00
C510   C     0.89754   0.18719   0.08738   0.00000  Uiso   1.00
C511   C     0.87724   0.17227   0.01001   0.00000  Uiso   1.00
C512   C     0.84336   0.17582   0.01349   0.00000  Uiso   1.00
C513   C     0.51792   0.44745  -0.01057   0.00000  Uiso   1.00
C514   C     0.53459   0.46721  -0.00998   0.00000  Uiso   1.00
C515   C     0.53504   0.42763  -0.02193   0.00000  Uiso   1.00
C516   C     0.51747   0.40860  -0.01106   0.00000  Uiso   1.00
C517   C     0.48235   0.56680  -0.00651   0.00000  Uiso   1.00
C518   C     0.46571   0.54703  -0.00958   0.00000  Uiso   1.00
C519   C     0.53399   0.58664   0.02436   0.00000  Uiso   1.00
C520   C     0.51688   0.60568   0.01374   0.00000  Uiso   1.00
C521   C     0.03469   0.97287  -0.04134   0.00000  Uiso   1.00
C522   C     0.98219   0.95311   0.02560   0.00000  Uiso   1.00
C523   C     0.03475   0.93329  -0.05016   0.00000  Uiso   1.00
C524   C     0.01731   0.91427  -0.02494   0.00000  Uiso   1.00
C525   C     0.98219   0.07244   0.02444   0.00000  Uiso   1.00
C526   C     0.96537   0.05266   0.04014   0.00000  Uiso   1.00
C527   C     0.03478   0.09228  -0.04655   0.00000  Uiso   1.00
C528   C     0.01735   0.11132  -0.02311   0.00000  Uiso   1.00
H529   H     0.12393   0.99538   0.00543   0.00000  Uiso   1.00
H530   H     0.14800   0.96270   0.14417   0.00000  Uiso   1.00
H531   H     0.05686   0.95563   0.53973   0.00000  Uiso   1.00
H532   H     0.03239   0.98789   0.40093   0.00000  Uiso   1.00
H533   H     0.10462   0.93041   0.55907   0.00000  Uiso   1.00
H534   H     0.18401   0.91115   0.06958   0.00000  Uiso   1.00
H535   H     0.14598   0.90885   0.67078   0.00000  Uiso   1.00
H536   H     0.03285   0.03419   0.42044   0.00000  Uiso   1.00
H537   H     0.05593   0.06637   0.57284   0.00000  Uiso   1.00
H538   H     0.14248   0.06640   0.13700   0.00000  Uiso   1.00
H539   H     0.12080   0.03381  -0.00863   0.00000  Uiso   1.00
H540   H     0.13760   0.09502   0.35799   0.00000  Uiso   1.00
H541   H     0.09026   0.13507   0.55113   0.00000  Uiso   1.00
H542   H     0.16242   0.09208   0.77178   0.00000  Uiso   1.00
H543   H     0.61826   0.49071   0.03835   0.00000  Uiso   1.00
H544   H     0.64502   0.45706   0.14313   0.00000  Uiso   1.00
H545   H     0.55891   0.44654   0.56907   0.00000  Uiso   1.00
H546   H     0.53212   0.47990   0.46565   0.00000  Uiso   1.00
H547   H     0.51322   0.53547   0.36755   0.00000  Uiso   1.00
H548   H     0.52701   0.56690   0.56497   0.00000  Uiso   1.00
H549   H     0.63282   0.54879   0.47526   0.00000  Uiso   1.00
H550   H     0.61943   0.51890   0.26721   0.00000  Uiso   1.00
H551   H     0.56823   0.59078   0.68878   0.00000  Uiso   1.00
H552   H     0.64606   0.42606   0.33527   0.00000  Uiso   1.00
H553   H     0.60061   0.61970   0.62883   0.00000  Uiso   1.00
H554   H     0.67651   0.57834   0.81371   0.00000  Uiso   1.00
H555   H     0.64942   0.40937   0.79789   0.00000  Uiso   1.00
H556   H     0.59951   0.38250   0.33727   0.00000  Uiso   1.00
H557   H     0.19741   0.69289   0.20852   0.00000  Uiso   1.00
H558   H     0.13528   0.68631   0.26688   0.00000  Uiso   1.00
H559   H     0.12106   0.72443  -0.23127   0.00000  Uiso   1.00
H560   H     0.18280   0.72868  -0.30263   0.00000  Uiso   1.00
H561   H     0.26780   0.67913  -0.04042   0.00000  Uiso   1.00
H562   H     0.29989   0.65817  -0.30383   0.00000  Uiso   1.00
H563   H     0.26011   0.69973  -0.71763   0.00000  Uiso   1.00
H564   H     0.22586   0.71922  -0.45820   0.00000  Uiso   1.00
H565   H     0.32454   0.67741  -0.76717   0.00000  Uiso   1.00
H566   H     0.07795   0.68632   0.12634   0.00000  Uiso   1.00
H567   H     0.36111   0.65090  -0.63693   0.00000  Uiso   1.00
H568   H     0.28489   0.60925  -0.81464   0.00000  Uiso   1.00
H569   H     0.03021   0.68214   0.01965   0.00000  Uiso   1.00
H570   H     0.03036   0.75143   0.01182   0.00000  Uiso   1.00
H571   H     0.67506   0.18212   0.11695   0.00000  Uiso   1.00
H572   H     0.61265   0.18705   0.14875   0.00000  Uiso   1.00
H573   H     0.62597   0.25630   0.20241   0.00000  Uiso   1.00
H574   H     0.68785   0.25171   0.15124   0.00000  Uiso   1.00
H575   H     0.77090   0.23449  -0.12449   0.00000  Uiso   1.00
H576   H     0.81021   0.21719  -0.37956   0.00000  Uiso   1.00
H577   H     0.74189   0.16277  -0.38330   0.00000  Uiso   1.00
H578   H     0.70502   0.17852  -0.11138   0.00000  Uiso   1.00
H579   H     0.82998   0.18681  -0.56003   0.00000  Uiso   1.00
H580   H     0.56799   0.24127   0.22930   0.00000  Uiso   1.00
H581   H     0.86725   0.16438  -0.52366   0.00000  Uiso   1.00
H582   H     0.79511   0.12141  -0.74623   0.00000  Uiso   1.00
H583   H     0.52685   0.17539   0.06819   0.00000  Uiso   1.00
H584   H     0.52719   0.24470   0.06570   0.00000  Uiso   1.00
H585   H     0.19124   0.29973  -0.61177   0.00000  Uiso   1.00
H586   H     0.23013   0.32919  -0.74062   0.00000  Uiso   1.00
H587   H     0.29759   0.31379  -0.32146   0.00000  Uiso   1.00
H588   H     0.25932   0.28469  -0.19295   0.00000  Uiso   1.00
H589   H     0.15366   0.29905  -0.39475   0.00000  Uiso   1.00
H590   H     0.10085   0.30693  -0.18089   0.00000  Uiso   1.00
H591   H     0.13120   0.26125   0.23102   0.00000  Uiso   1.00
H592   H     0.18424   0.25420   0.02328   0.00000  Uiso   1.00
H593   H     0.07350   0.27733   0.28328   0.00000  Uiso   1.00
H594   H     0.28200   0.34992  -0.74421   0.00000  Uiso   1.00
H595   H     0.02801   0.26906   0.05666   0.00000  Uiso   1.00
H596   H     0.02782   0.33842   0.05734   0.00000  Uiso   1.00
H597   H     0.31535   0.37655  -0.79944   0.00000  Uiso   1.00
H598   H     0.36561   0.34966  -0.33992   0.00000  Uiso   1.00
H599   H     0.69675   0.79210  -0.69484   0.00000  Uiso   1.00
H600   H     0.72918   0.82605  -0.77502   0.00000  Uiso   1.00
H601   H     0.76842   0.82335  -0.22900   0.00000  Uiso   1.00
H602   H     0.73660   0.78982  -0.14945   0.00000  Uiso   1.00
H603   H     0.65978   0.75361  -0.63138   0.00000  Uiso   1.00
H604   H     0.59848   0.76028  -0.64644   0.00000  Uiso   1.00
H605   H     0.59438   0.79821  -0.12800   0.00000  Uiso   1.00
H606   H     0.65414   0.78987  -0.10391   0.00000  Uiso   1.00
H607   H     0.54367   0.77499  -0.50968   0.00000  Uiso   1.00
H608   H     0.77102   0.85358  -0.69942   0.00000  Uiso   1.00
H609   H     0.51984   0.76637  -0.14635   0.00000  Uiso   1.00
H610   H     0.51965   0.83567  -0.14726   0.00000  Uiso   1.00
H611   H     0.78431   0.87746  -0.10295   0.00000  Uiso   1.00
H612   H     0.82096   0.87547  -0.70617   0.00000  Uiso   1.00
H613   H     0.24752   0.76349   0.60462   0.00000  Uiso   1.00
H614   H     0.18319   0.74429   0.06499   0.00000  Uiso   1.00
H615   H     0.29236   0.72099  -0.29777   0.00000  Uiso   1.00
H616   H     0.35017   0.73602   0.27642   0.00000  Uiso   1.00
H617   H     0.12952   0.75702   0.25197   0.00000  Uiso   1.00
H618   H     0.10036   0.77300   0.54908   0.00000  Uiso   1.00
H619   H     0.13291   0.78337   0.81593   0.00000  Uiso   1.00
H620   H     0.19479   0.77763   0.79046   0.00000  Uiso   1.00
H621   H     0.40485   0.72243   0.10685   0.00000  Uiso   1.00
H622   H     0.43742   0.70978  -0.19405   0.00000  Uiso   1.00
H623   H     0.40835   0.70226  -0.48094   0.00000  Uiso   1.00
H624   H     0.34661   0.70763  -0.47176   0.00000  Uiso   1.00
H625   H     0.75647   0.27011   0.69867   0.00000  Uiso   1.00
H626   H     0.68369   0.21235   0.47679   0.00000  Uiso   1.00
H627   H     0.63194   0.22984   0.65234   0.00000  Uiso   1.00
H628   H     0.60615   0.26292   0.81108   0.00000  Uiso   1.00
H629   H     0.64275   0.29209   0.92015   0.00000  Uiso   1.00
H630   H     0.70530   0.28859   0.87127   0.00000  Uiso   1.00
H631   H     0.77633   0.18426   0.08338   0.00000  Uiso   1.00
H632   H     0.85043   0.24083   0.32757   0.00000  Uiso   1.00
H633   H     0.90130   0.21799   0.22675   0.00000  Uiso   1.00
H634   H     0.92536   0.18380   0.08411   0.00000  Uiso   1.00
H635   H     0.88861   0.15700  -0.05669   0.00000  Uiso   1.00
H636   H     0.82738   0.16367  -0.05382   0.00000  Uiso   1.00
H637   H     0.56302   0.46771  -0.02414   0.00000  Uiso   1.00
H638   H     0.56349   0.42729  -0.04014   0.00000  Uiso   1.00
H639   H     0.53144   0.39273  -0.02013   0.00000  Uiso   1.00
H640   H     0.43744   0.54657  -0.00840   0.00000  Uiso   1.00
H641   H     0.56145   0.58680   0.04764   0.00000  Uiso   1.00
H642   H     0.53029   0.62154   0.02739   0.00000  Uiso   1.00
H643   H     0.06291   0.97293  -0.08013   0.00000  Uiso   1.00
H644   H     0.06292   0.93308  -0.09097   0.00000  Uiso   1.00
H645   H     0.03112   0.89839  -0.04475   0.00000  Uiso   1.00
H646   H     0.93714   0.05219   0.07837   0.00000  Uiso   1.00
H647   H     0.06303   0.09246  -0.08398   0.00000  Uiso   1.00
H648   H     0.03124   0.12719  -0.04141   0.00000  Uiso   1.00
loop_
_geom_bond_atom_site_label_1
_geom_bond_atom_site_label_2
_geom_bond_distance
_geom_bond_site_symmetry_2
_ccdc_geom_bond_type
C1     C2      1.365   .     S
C1     C6      1.420   .     D
C1     H205    1.163   .     S
C2     C3      1.439   .     D
C2     H206    1.158   .     S
C3     C4      1.428   .     S
C3     C8      1.433   .     S
C4     C5      1.369   .     D
C4     H207    1.164   .     S
C5     C6      1.432   .     S
C5     H208    1.159   .     S
C6     C13     1.476   1_565 S
N7     C8      1.318   .     D
N7     C11     1.387   .     S
C8     H209    1.162   .     S
C9     C11     1.433   .     D
C9     H210    1.140   .     S
C9     C470    1.375   .     S
C10    C11     1.404   .     S
C10    H211    1.166   .     S
C10    C471    1.381   .     D
C12    C197    1.392   .     D
C12    C374    1.506   1_565 S
C12    C336    1.413   1_655 S
C13    C19     1.473   .     D
C13    C374    1.336   .     S
C13    C6      1.476   1_545 S
C14    C15     1.367   .     D
C14    C19     1.433   .     S
C14    H212    1.159   .     S
C15    C16     1.429   .     S
C15    H213    1.164   .     S
C16    C17     1.436   .     S
C16    C21     1.424   .     D
C17    C18     1.365   .     D
C17    H214    1.160   .     S
C18    C19     1.424   .     S
C18    H215    1.164   .     S
N20    C21     1.317   .     S
N20    C24     1.384   .     D
C21    H216    1.164   .     S
C22    C24     1.396   .     S
C22    H217    1.123   .     S
C22    C417    1.384   .     D
C23    C24     1.375   .     S
C23    H218    1.134   .     S
C23    C418    1.385   .     D
C25    C26     1.370   .     D
C25    C30     1.430   .     S
C25    H219    1.160   .     S
C26    C27     1.432   .     S
C26    H220    1.163   .     S
C27    C28     1.437   .     S
C27    C40     1.436   .     D
C28    C29     1.372   .     D
C28    H221    1.161   .     S
C29    C30     1.427   .     S
C29    H222    1.163   .     S
C30    C49     1.483   .     D
C31    C32     1.371   .     S
C31    C36     1.427   .     D
C31    H223    1.128   .     S
C32    C33     1.387   .     D
C32    H224    1.158   .     S
C33    C34     1.430   .     S
C33    C38     1.436   .     S
C34    C35     1.370   .     D
C34    H225    1.126   .     S
C35    C36     1.384   .     S
C35    H226    1.158   .     S
C36    C49     1.496   .     S
N37    C38     1.268   .     D
N37    C43     1.405   .     S
C38    H227    1.150   .     S
N39    C40     1.318   .     S
N39    C46     1.394   .     D
C40    H228    1.164   .     S
C41    C43     1.362   .     D
C41    H229    1.120   .     S
C41    C391    1.360   .     S
C42    C43     1.335   .     S
C42    H230    1.135   .     S
C42    C392    1.357   .     D
C44    C46     1.362   .     S
C44    H231    1.134   .     S
C44    C446    1.384   .     D
C45    C46     1.396   .     S
C45    H232    1.107   .     S
C45    C447    1.381   .     D
C47    C48     1.511   .     S
C47    C476    1.506   .     D
C47    C373    1.344   .     S
C48    C514    1.391   .     S
C48    C372    1.403   .     D
C49    C371    1.344   .     S
C50    C337    1.336   .     S
C50    C475    1.506   .     D
C50    C336    1.506   1_545 S
C51    C52     1.395   .     S
C51    C56     1.425   .     D
C51    H233    1.112   .     S
C52    C53     1.374   .     D
C52    H234    1.157   .     S
C53    C54     1.431   .     S
C53    C66     1.463   .     S
C54    C55     1.394   .     D
C54    H235    1.112   .     S
C55    C56     1.367   .     S
C55    H236    1.158   .     S
C56    C76     1.515   .     S
C57    C58     1.414   .     S
C57    C62     1.394   .     D
C57    H237    1.134   .     S
C58    C59     1.404   .     D
C58    H238    1.132   .     S
C59    C60     1.391   .     S
C59    C64     1.477   .     S
C60    C61     1.408   .     D
C60    H239    1.131   .     S
C61    C62     1.390   .     S
C61    H240    1.129   .     S
C62    C76     1.523   .     S
N63    C64     1.289   .     D
N63    C69     1.410   .     S
C64    H241    1.163   .     S
N65    C66     1.290   .     D
N65    C72     1.406   .     S
C66    H242    1.148   .     S
C67    C69     1.343   .     D
C67    H243    1.136   .     S
C67    C365    1.360   .     S
C68    C69     1.357   .     S
C68    H244    1.119   .     S
C68    C366    1.357   .     D
C70    C72     1.365   .     S
C70    H245    1.138   .     S
C70    C394    1.353   1_655 D
C71    C72     1.361   .     D
C71    H246    1.139   .     S
C71    C395    1.351   1_655 S
C73    C74     1.514   .     S
C73    C154    1.534   .     S
C73    C474    1.367   .     D
C74    C75     1.378   .     D
C74    C157    1.417   .     S
C75    C160    1.392   .     S
C75    C473    1.555   .     S
C76    C473    1.370   .     D
C77    C78     1.384   .     S
C77    C82     1.403   .     D
C77    H247    1.142   .     S
C78    C79     1.413   .     D
C78    H248    1.139   .     S
C79    C80     1.405   .     S
C79    C92     1.450   .     S
C80    C81     1.390   .     D
C80    H249    1.144   .     S
C81    C82     1.408   .     S
C81    H250    1.139   .     S
C82    C102    1.504   .     S
C83    C84     1.410   .     D
C83    C88     1.429   .     S
C83    H251    1.137   .     S
C84    C85     1.398   .     S
C84    H252    1.159   .     S
C85    C86     1.428   .     S
C85    C90     1.474   .     D
C86    C87     1.416   .     D
C86    H253    1.132   .     S
C87    C88     1.396   .     S
C87    H254    1.157   .     S
C88    C102    1.530   .     D
N89    C90     1.288   .     S
N89    C95     1.412   .     D
C90    H255    1.154   .     S
N91    C92     1.287   .     D
N91    C98     1.380   .     S
C92    H256    1.147   .     S
C93    C95     1.387   .     S
C93    H257    1.135   .     S
C93    C346    1.384   .     D
C94    C95     1.396   .     S
C94    H258    1.117   .     S
C94    C347    1.385   .     D
C96    C98     1.356   .     D
C96    H259    1.134   .     S
C96    C420    1.327   .     S
C97    C98     1.360   .     S
C97    H260    1.135   .     S
C97    C421    1.330   .     D
C99    C100    1.552   .     D
C99    C156    1.518   .     S
C99    C450    1.381   .     S
C100   C101    1.393   .     S
C100   C173    1.406   .     S
C101   C176    1.417   .     S
C101   C449    1.524   .     D
C102   C449    1.339   .     S
C103   C104    1.401   .     D
C103   C108    1.387   .     S
C103   H261    1.113   .     S
C104   C105    1.375   .     S
C104   H262    1.126   .     S
C105   C106    1.393   .     S
C105   C118    1.466   .     D
C106   C107    1.397   .     D
C106   H263    1.113   .     S
C107   C108    1.368   .     S
C107   H264    1.125   .     S
C108   C126    1.509   .     D
C109   C110    1.418   .     S
C109   C114    1.385   .     D
C109   H265    1.148   .     S
C110   C111    1.421   .     D
C110   H266    1.126   .     S
C111   C112    1.389   .     S
C111   C116    1.490   .     S
C112   C113    1.420   .     D
C112   H267    1.147   .     S
C113   C114    1.416   .     S
C113   H268    1.124   .     S
C114   C126    1.548   .     S
N115   C116    1.288   .     D
N115   C121    1.389   .     S
C116   H269    1.152   .     S
N117   C118    1.263   .     S
N117   C124    1.404   .     D
C118   H270    1.125   .     S
C119   C121    1.363   .     D
C119   H271    1.135   .     S
C119   C443    1.336   1_655 S
C120   C121    1.359   .     S
C120   H272    1.135   .     S
C120   C444    1.333   1_655 D
C122   C124    1.401   .     S
C122   H273    1.106   .     S
C122   C368    1.384   .     D
C123   C124    1.362   .     S
C123   H274    1.132   .     S
C123   C369    1.381   .     D
C125   C425    1.524   .     D
C125   C426    1.339   .     S
C125   C479    1.521   .     S
C126   C423    1.381   .     S
C127   C128    1.394   .     S
C127   C132    1.395   .     D
C127   H275    1.111   .     S
C128   C129    1.373   .     D
C128   H276    1.133   .     S
C129   C130    1.403   .     S
C129   C142    1.456   .     S
C130   C131    1.387   .     D
C130   H277    1.112   .     S
C131   C132    1.367   .     S
C131   H278    1.134   .     S
C132   C150    1.510   .     S
C133   C134    1.374   .     D
C133   C138    1.367   .     S
C133   H279    1.162   .     S
C134   C135    1.434   .     S
C134   H280    1.114   .     S
C135   C136    1.380   .     D
C135   C140    1.439   .     S
C136   C137    1.374   .     S
C136   H281    1.161   .     S
C137   C138    1.427   .     D
C137   H282    1.114   .     S
C138   C150    1.491   .     S
N139   C140    1.309   .     D
N139   C145    1.452   .     S
C140   H283    1.118   .     S
N141   C142    1.265   .     D
N141   C148    1.392   .     S
C142   H284    1.141   .     S
C143   C145    1.377   .     S
C143   H285    1.149   .     S
C143   C467    1.396   .     D
C144   C145    1.374   .     D
C144   H286    1.148   .     S
C144   C468    1.399   .     S
C146   C148    1.399   .     D
C146   H287    1.165   .     S
C146   C333    1.375   .     S
C147   C148    1.437   .     S
C147   H288    1.139   .     S
C147   C334    1.381   .     D
C149   C399    1.555   .     S
C149   C400    1.370   .     D
C149   C477    1.544   .     S
C150   C397    1.367   .     D
C151   C374    1.506   .     D
C151   C526    1.393   .     S
C151   C475    1.412   1_655 S
C152   C371    1.506   .     D
C152   C518    1.389   .     S
C152   C476    1.395   .     S
C153   C154    1.385   .     D
C153   C161    1.422   .     S
C153   C473    1.544   .     S
C154   C164    1.383   .     S
C155   C156    1.389   .     D
C155   C181    1.399   .     S
C155   C449    1.521   .     S
C156   C184    1.385   .     S
C157   C158    1.408   .     D
C157   H289    1.109   .     S
C158   C159    1.398   .     S
C158   C168    1.447   .     S
C159   C160    1.438   .     D
C159   C165    1.423   .     S
C160   H290    1.111   .     S
C161   C162    1.408   .     D
C161   H291    1.110   .     S
C162   C163    1.399   .     S
C162   C172    1.452   .     S
C163   C164    1.437   .     D
C163   C169    1.418   .     S
C164   H292    1.112   .     S
C165   C166    1.412   .     D
C165   H293    1.110   .     S
C166   C167    1.364   .     S
C166   H294    1.142   .     S
C167   C168    1.384   .     D
C167   H295    1.163   .     S
C168   H296    1.111   .     S
C169   C170    1.416   .     D
C169   H297    1.111   .     S
C170   C171    1.365   .     S
C170   H298    1.139   .     S
C171   C172    1.381   .     D
C171   H299    1.166   .     S
C172   H300    1.112   .     S
C173   C174    1.434   .     D
C173   H301    1.120   .     S
C174   C175    1.426   .     S
C174   C180    1.438   .     S
C175   C176    1.429   .     D
C175   C177    1.433   .     S
C176   H302    1.133   .     S
C177   C178    1.400   .     D
C177   H303    1.129   .     S
C178   C179    1.383   .     S
C178   H304    1.147   .     S
C179   C180    1.392   .     D
C179   H305    1.153   .     S
C180   H306    1.125   .     S
C181   C182    1.418   .     D
C181   H307    1.127   .     S
C182   C183    1.424   .     S
C182   C188    1.432   .     S
C183   C184    1.426   .     D
C183   C185    1.418   .     S
C184   H308    1.123   .     S
C185   C186    1.396   .     D
C185   H309    1.123   .     S
C186   C187    1.378   .     S
C186   H310    1.137   .     S
C187   C188    1.379   .     D
C187   H311    1.151   .     S
C188   H312    1.123   .     S
C189   C190    1.408   .     D
C189   C191    1.419   .     S
C189   C513    1.440   .     S
C190   H313    1.142   .     S
C190   C372    1.391   .     S
C191   C192    1.385   .     D
C191   H314    1.144   .     S
C192   H315    1.142   .     S
C192   C516    1.404   .     S
C193   C194    1.408   .     D
C193   C517    1.428   .     S
C193   C519    1.415   .     S
C194   H316    1.137   .     S
C194   C476    1.389   .     S
C195   C196    1.381   .     D
C195   H317    1.127   .     S
C195   C517    1.415   .     S
C196   H318    1.137   .     S
C196   C520    1.383   .     S
C197   H319    1.152   .     S
C197   C522    1.413   .     S
C198   C521    1.413   .     S
C198   C523    1.422   .     D
C198   C522    1.457   1_455 S
C199   C200    1.389   .     S
C199   H320    1.152   .     S
C199   C522    1.422   .     D
C200   H321    1.144   .     S
C200   C524    1.416   1_655 D
C201   C202    1.413   .     D
C201   C527    1.422   .     S
C201   C525    1.454   1_455 S
C202   H322    1.152   .     S
C202   C475    1.393   .     S
C203   C204    1.388   .     D
C203   H323    1.151   .     S
C203   C525    1.422   .     S
C204   H324    1.144   .     S
C204   C528    1.414   1_655 S
C325   C326    1.365   .     S
C325   C330    1.420   .     D
C325   H529    1.163   .     S
C326   C327    1.439   .     D
C326   H530    1.158   .     S
C327   C328    1.428   .     S
C327   C332    1.433   .     S
C328   C329    1.369   .     D
C328   H531    1.164   .     S
C329   C330    1.432   .     S
C329   H532    1.159   .     S
C330   C337    1.476   1_565 S
N331   C332    1.318   .     D
N331   C335    1.387   .     S
C332   H533    1.162   .     S
C333   C335    1.433   .     D
C333   H534    1.140   .     S
C334   C335    1.404   .     S
C334   H535    1.166   .     S
C336   C521    1.392   .     D
C336   C12     1.413   1_455 S
C336   C50     1.506   1_565 S
C337   C343    1.473   .     D
C337   C330    1.476   1_545 S
C338   C339    1.367   .     D
C338   C343    1.433   .     S
C338   H536    1.159   .     S
C339   C340    1.429   .     S
C339   H537    1.164   .     S
C340   C341    1.436   .     S
C340   C345    1.424   .     D
C341   C342    1.365   .     D
C341   H538    1.160   .     S
C342   C343    1.424   .     S
C342   H539    1.164   .     S
N344   C345    1.317   .     S
N344   C348    1.384   .     D
C345   H540    1.164   .     S
C346   C348    1.396   .     S
C346   H541    1.123   .     S
C347   C348    1.375   .     S
C347   H542    1.134   .     S
C349   C350    1.370   .     D
C349   C354    1.430   .     S
C349   H543    1.160   .     S
C350   C351    1.432   .     S
C350   H544    1.163   .     S
C351   C352    1.437   .     S
C351   C364    1.436   .     D
C352   C353    1.372   .     D
C352   H545    1.161   .     S
C353   C354    1.427   .     S
C353   H546    1.163   .     S
C354   C373    1.483   .     D
C355   C356    1.371   .     S
C355   C360    1.427   .     D
C355   H547    1.128   .     S
C356   C357    1.387   .     D
C356   H548    1.158   .     S
C357   C358    1.430   .     S
C357   C362    1.436   .     S
C358   C359    1.370   .     D
C358   H549    1.126   .     S
C359   C360    1.384   .     S
C359   H550    1.158   .     S
C360   C373    1.496   .     S
N361   C362    1.268   .     D
N361   C367    1.405   .     S
C362   H551    1.150   .     S
N363   C364    1.318   .     S
N363   C370    1.394   .     D
C364   H552    1.164   .     S
C365   C367    1.362   .     D
C365   H553    1.120   .     S
C366   C367    1.335   .     S
C366   H554    1.135   .     S
C368   C370    1.362   .     S
C368   H555    1.134   .     S
C369   C370    1.396   .     S
C369   H556    1.107   .     S
C371   C372    1.511   .     S
C374   C12     1.506   1_545 S
C375   C376    1.395   .     D
C375   C380    1.425   .     S
C375   H557    1.112   .     S
C376   C377    1.374   .     S
C376   H558    1.157   .     S
C377   C378    1.431   .     D
C377   C390    1.463   .     S
C378   C379    1.394   .     S
C378   H559    1.112   .     S
C379   C380    1.367   .     D
C379   H560    1.158   .     S
C380   C400    1.515   .     S
C381   C382    1.414   .     S
C381   C386    1.394   .     D
C381   H561    1.134   .     S
C382   C383    1.404   .     D
C382   H562    1.132   .     S
C383   C384    1.391   .     S
C383   C388    1.477   .     S
C384   C385    1.408   .     D
C384   H563    1.131   .     S
C385   C386    1.390   .     S
C385   H564    1.129   .     S
C386   C400    1.523   .     S
N387   C388    1.289   .     D
N387   C393    1.410   .     S
C388   H565    1.163   .     S
N389   C390    1.290   .     D
N389   C396    1.406   .     S
C390   H566    1.148   .     S
C391   C393    1.343   .     D
C391   H567    1.136   .     S
C392   C393    1.357   .     S
C392   H568    1.119   .     S
C394   C396    1.365   .     S
C394   H569    1.138   .     S
C394   C70     1.353   1_455 D
C395   C396    1.361   .     D
C395   H570    1.139   .     S
C395   C71     1.351   1_455 S
C397   C398    1.514   .     S
C397   C478    1.534   .     S
C398   C399    1.378   .     S
C398   C481    1.417   .     D
C399   C484    1.392   .     D
C401   C402    1.384   .     S
C401   C406    1.403   .     D
C401   H571    1.142   .     S
C402   C403    1.413   .     D
C402   H572    1.139   .     S
C403   C404    1.405   .     S
C403   C416    1.450   .     S
C404   C405    1.390   .     D
C404   H573    1.144   .     S
C405   C406    1.408   .     S
C405   H574    1.139   .     S
C406   C426    1.504   .     S
C407   C408    1.410   .     D
C407   C412    1.429   .     S
C407   H575    1.137   .     S
C408   C409    1.398   .     S
C408   H576    1.159   .     S
C409   C410    1.428   .     S
C409   C414    1.474   .     D
C410   C411    1.416   .     D
C410   H577    1.132   .     S
C411   C412    1.396   .     S
C411   H578    1.157   .     S
C412   C426    1.530   .     D
N413   C414    1.288   .     S
N413   C419    1.412   .     D
C414   H579    1.154   .     S
N415   C416    1.287   .     D
N415   C422    1.380   .     S
C416   H580    1.147   .     S
C417   C419    1.387   .     S
C417   H581    1.135   .     S
C418   C419    1.396   .     S
C418   H582    1.117   .     S
C420   C422    1.356   .     D
C420   H583    1.134   .     S
C421   C422    1.360   .     S
C421   H584    1.135   .     S
C423   C424    1.552   .     D
C423   C480    1.518   .     S
C424   C425    1.393   .     S
C424   C497    1.406   .     S
C425   C500    1.417   .     S
C427   C428    1.401   .     D
C427   C432    1.387   .     S
C427   H585    1.113   .     S
C428   C429    1.375   .     S
C428   H586    1.126   .     S
C429   C430    1.393   .     S
C429   C442    1.466   .     D
C430   C431    1.397   .     D
C430   H587    1.113   .     S
C431   C432    1.368   .     S
C431   H588    1.125   .     S
C432   C450    1.509   .     D
C433   C434    1.418   .     S
C433   C438    1.385   .     D
C433   H589    1.148   .     S
C434   C435    1.421   .     D
C434   H590    1.126   .     S
C435   C436    1.389   .     S
C435   C440    1.490   .     S
C436   C437    1.420   .     D
C436   H591    1.147   .     S
C437   C438    1.416   .     S
C437   H592    1.124   .     S
C438   C450    1.548   .     S
N439   C440    1.288   .     D
N439   C445    1.389   .     S
C440   H593    1.152   .     S
N441   C442    1.263   .     S
N441   C448    1.404   .     D
C442   H594    1.125   .     S
C443   C445    1.363   .     D
C443   H595    1.135   .     S
C443   C119    1.336   1_455 S
C444   C445    1.359   .     S
C444   H596    1.135   .     S
C444   C120    1.333   1_455 D
C446   C448    1.401   .     S
C446   H597    1.106   .     S
C447   C448    1.362   .     S
C447   H598    1.132   .     S
C451   C452    1.394   .     S
C451   C456    1.395   .     D
C451   H599    1.111   .     S
C452   C453    1.373   .     D
C452   H600    1.133   .     S
C453   C454    1.403   .     S
C453   C466    1.456   .     S
C454   C455    1.387   .     D
C454   H601    1.112   .     S
C455   C456    1.367   .     S
C455   H602    1.134   .     S
C456   C474    1.510   .     S
C457   C458    1.374   .     S
C457   C462    1.367   .     D
C457   H603    1.162   .     S
C458   C459    1.434   .     D
C458   H604    1.114   .     S
C459   C460    1.380   .     S
C459   C464    1.439   .     S
C460   C461    1.374   .     D
C460   H605    1.161   .     S
C461   C462    1.427   .     S
C461   H606    1.114   .     S
C462   C474    1.491   .     S
N463   C464    1.309   .     D
N463   C469    1.452   .     S
C464   H607    1.118   .     S
N465   C466    1.265   .     D
N465   C472    1.392   .     S
C466   H608    1.141   .     S
C467   C469    1.377   .     S
C467   H609    1.149   .     S
C468   C469    1.374   .     D
C468   H610    1.148   .     S
C470   C472    1.399   .     D
C470   H611    1.165   .     S
C471   C472    1.437   .     S
C471   H612    1.139   .     S
C475   C151    1.412   1_455 S
C477   C478    1.385   .     D
C477   C485    1.422   .     S
C478   C488    1.383   .     S
C479   C480    1.389   .     D
C479   C505    1.399   .     S
C480   C508    1.385   .     S
C481   C482    1.408   .     S
C481   H613    1.109   .     S
C482   C483    1.398   .     S
C482   C492    1.447   .     D
C483   C484    1.438   .     S
C483   C489    1.423   .     D
C484   H614    1.111   .     S
C485   C486    1.408   .     D
C485   H615    1.110   .     S
C486   C487    1.399   .     S
C486   C496    1.452   .     S
C487   C488    1.437   .     D
C487   C493    1.418   .     S
C488   H616    1.112   .     S
C489   C490    1.412   .     S
C489   H617    1.110   .     S
C490   C491    1.364   .     D
C490   H618    1.142   .     S
C491   C492    1.384   .     S
C491   H619    1.163   .     S
C492   H620    1.111   .     S
C493   C494    1.416   .     D
C493   H621    1.111   .     S
C494   C495    1.365   .     S
C494   H622    1.139   .     S
C495   C496    1.381   .     D
C495   H623    1.166   .     S
C496   H624    1.112   .     S
C497   C498    1.434   .     D
C497   H625    1.120   .     S
C498   C499    1.426   .     S
C498   C504    1.438   .     S
C499   C500    1.429   .     D
C499   C501    1.433   .     S
C500   H626    1.133   .     S
C501   C502    1.400   .     D
C501   H627    1.129   .     S
C502   C503    1.383   .     S
C502   H628    1.147   .     S
C503   C504    1.392   .     D
C503   H629    1.153   .     S
C504   H630    1.125   .     S
C505   C506    1.418   .     D
C505   H631    1.127   .     S
C506   C507    1.424   .     S
C506   C512    1.432   .     S
C507   C508    1.426   .     D
C507   C509    1.418   .     S
C508   H632    1.123   .     S
C509   C510    1.396   .     D
C509   H633    1.123   .     S
C510   C511    1.378   .     S
C510   H634    1.137   .     S
C511   C512    1.379   .     D
C511   H635    1.151   .     S
C512   H636    1.123   .     S
C513   C514    1.408   .     D
C513   C515    1.419   .     S
C514   H637    1.142   .     S
C515   C516    1.385   .     D
C515   H638    1.144   .     S
C516   H639    1.142   .     S
C517   C518    1.408   .     D
C518   H640    1.137   .     S
C519   C520    1.381   .     D
C519   H641    1.127   .     S
C520   H642    1.137   .     S
C521   H643    1.152   .     S
C522   C198    1.457   1_655 S
C523   C524    1.389   .     S
C523   H644    1.152   .     S
C524   H645    1.144   .     S
C524   C200    1.416   1_455 D
C525   C526    1.413   .     D
C525   C201    1.454   1_655 S
C526   H646    1.152   .     S
C527   C528    1.388   .     D
C527   H647    1.151   .     S
C528   H648    1.144   .     S
C528   C204    1.414   1_455 S
