data_938
_audit_creation_date              2023-09-08
_audit_creation_method            'Materials Studio'
_symmetry_space_group_name_H-M    'P1'
_symmetry_Int_Tables_number       1
_symmetry_cell_setting            triclinic
loop_
_symmetry_equiv_pos_as_xyz
  x,y,z
_cell_length_a                    75.8531
_cell_length_b                    75.9008
_cell_length_c                    7.0555
_cell_angle_alpha                 90.0000
_cell_angle_beta                  90.0000
_cell_angle_gamma                 119.9625
loop_
_atom_site_label
_atom_site_type_symbol
_atom_site_fract_x
_atom_site_fract_y
_atom_site_fract_z
_atom_site_U_iso_or_equiv
_atom_site_adp_type
_atom_site_occupancy
C11    C     0.00927   0.48697   0.38132   0.00000  Uiso   1.00
C22    C     0.02186   0.50800   0.36196   0.00000  Uiso   1.00
C33    C     0.01327   0.52069   0.35162   0.00000  Uiso   1.00
C44    C     0.04348   0.51630   0.34367   0.00000  Uiso   1.00
C55    C     0.06159   0.52344   0.32737   0.00000  Uiso   1.00
C66    C     0.08322   0.53221   0.30763   0.00000  Uiso   1.00
C77    C     0.09182   0.51968   0.29507   0.00000  Uiso   1.00
C88    C     0.11289   0.52827   0.27657   0.00000  Uiso   1.00
C99    C     0.12556   0.54948   0.27022   0.00000  Uiso   1.00
C1010  C     0.11678   0.56198   0.28245   0.00000  Uiso   1.00
C1111  C     0.09573   0.55336   0.30107   0.00000  Uiso   1.00
C1212  C     0.14776   0.55822   0.25169   0.00000  Uiso   1.00
C1313  C     0.49093   0.01182   0.30135   0.00000  Uiso   1.00
C1414  C     0.52060   0.00762   0.27096   0.00000  Uiso   1.00
C1515  C     0.51201   0.02038   0.28249   0.00000  Uiso   1.00
C1616  C     0.52443   0.04213   0.26641   0.00000  Uiso   1.00
C1717  C     0.53497   0.06032   0.25336   0.00000  Uiso   1.00
C1818  C     0.54778   0.08200   0.23878   0.00000  Uiso   1.00
C1919  C     0.56883   0.09048   0.21874   0.00000  Uiso   1.00
C2020  C     0.58139   0.11157   0.20752   0.00000  Uiso   1.00
C2121  C     0.57304   0.12440   0.21616   0.00000  Uiso   1.00
C2222  C     0.55184   0.11576   0.23525   0.00000  Uiso   1.00
C2323  C     0.53930   0.09466   0.24653   0.00000  Uiso   1.00
C2424  C     0.58669   0.14662   0.20673   0.00000  Uiso   1.00
N2525  N     0.57947   0.15893   0.21652   0.00000  Uiso   1.00
N2626  N     0.15983   0.57781   0.24825   0.00000  Uiso   1.00
N2727  N     0.32279   0.67612   0.17845   0.00000  Uiso   1.00
C2828  C     0.31267   0.65547   0.17580   0.00000  Uiso   1.00
C2929  C     0.35433   0.70936   0.17914   0.00000  Uiso   1.00
C3030  C     0.37516   0.72066   0.13577   0.00000  Uiso   1.00
C3131  C     0.38544   0.74189   0.14080   0.00000  Uiso   1.00
C3232  C     0.37520   0.75235   0.19174   0.00000  Uiso   1.00
C3333  C     0.35435   0.74099   0.23563   0.00000  Uiso   1.00
C3434  C     0.34401   0.71977   0.22816   0.00000  Uiso   1.00
C3535  C     0.38621   0.77497   0.20023   0.00000  Uiso   1.00
C3636  C     0.40668   0.78591   0.25824   0.00000  Uiso   1.00
C3737  C     0.41698   0.80712   0.26633   0.00000  Uiso   1.00
C3838  C     0.40706   0.81790   0.22000   0.00000  Uiso   1.00
C3939  C     0.38666   0.80709   0.15986   0.00000  Uiso   1.00
C4040  C     0.37638   0.78587   0.15003   0.00000  Uiso   1.00
N4141  N     0.64629   0.32228   0.22221   0.00000  Uiso   1.00
C4242  C     0.65657   0.31190   0.21931   0.00000  Uiso   1.00
C4343  C     0.64513   0.35410   0.23185   0.00000  Uiso   1.00
C4444  C     0.65497   0.37495   0.18933   0.00000  Uiso   1.00
C4545  C     0.64425   0.38548   0.19262   0.00000  Uiso   1.00
C4646  C     0.62349   0.37549   0.24134   0.00000  Uiso   1.00
C4747  C     0.61372   0.35463   0.28498   0.00000  Uiso   1.00
C4848  C     0.62437   0.34403   0.27888   0.00000  Uiso   1.00
C4949  C     0.61210   0.38675   0.24703   0.00000  Uiso   1.00
C5050  C     0.62176   0.40724   0.30424   0.00000  Uiso   1.00
C5151  C     0.61105   0.41778   0.30897   0.00000  Uiso   1.00
C5252  C     0.59044   0.40808   0.26001   0.00000  Uiso   1.00
C5353  C     0.58072   0.38765   0.20086   0.00000  Uiso   1.00
C5454  C     0.59146   0.37714   0.19445   0.00000  Uiso   1.00
O5555  O     0.51606   0.97377   0.24455   0.00000  Uiso   1.00
O5656  O     0.98317   0.52382   0.32452   0.00000  Uiso   1.00
C5757  C     0.44585   0.48463   0.35471   0.00000  Uiso   1.00
C5858  C     0.46838   0.44615   0.40625   0.00000  Uiso   1.00
C5959  C     0.51216   0.52047   0.28514   0.00000  Uiso   1.00
C6060  C     0.49111   0.51182   0.26248   0.00000  Uiso   1.00
C6161  C     0.47861   0.49046   0.25258   0.00000  Uiso   1.00
C6262  C     0.48275   0.52508   0.24064   0.00000  Uiso   1.00
C6363  C     0.47566   0.53608   0.22281   0.00000  Uiso   1.00
C6464  C     0.46700   0.54905   0.20268   0.00000  Uiso   1.00
C6565  C     0.47962   0.56998   0.17597   0.00000  Uiso   1.00
C6666  C     0.47116   0.58260   0.15965   0.00000  Uiso   1.00
C6767  C     0.45000   0.57440   0.16978   0.00000  Uiso   1.00
C6868  C     0.43741   0.55332   0.19540   0.00000  Uiso   1.00
C6969  C     0.44589   0.54074   0.21179   0.00000  Uiso   1.00
C7070  C     0.44141   0.58804   0.15542   0.00000  Uiso   1.00
C7171  C     0.98781   0.47766   0.38422   0.00000  Uiso   1.00
C7272  C     0.99162   0.51130   0.35433   0.00000  Uiso   1.00
C7373  C     0.97908   0.49004   0.36768   0.00000  Uiso   1.00
C7474  C     0.95730   0.48072   0.35539   0.00000  Uiso   1.00
C7575  C     0.93909   0.47310   0.34412   0.00000  Uiso   1.00
C7676  C     0.91739   0.46425   0.33035   0.00000  Uiso   1.00
C7777  C     0.90875   0.47678   0.32995   0.00000  Uiso   1.00
C7878  C     0.88766   0.46824   0.31698   0.00000  Uiso   1.00
C7979  C     0.87498   0.44707   0.30439   0.00000  Uiso   1.00
C8080  C     0.88377   0.43456   0.30447   0.00000  Uiso   1.00
C8181  C     0.90488   0.44314   0.31731   0.00000  Uiso   1.00
C8282  C     0.85274   0.43844   0.29187   0.00000  Uiso   1.00
N8383  N     0.84056   0.41889   0.28592   0.00000  Uiso   1.00
N8484  N     0.42189   0.58082   0.16775   0.00000  Uiso   1.00
N8585  N     0.32342   0.64557   0.16887   0.00000  Uiso   1.00
C8686  C     0.34408   0.65611   0.16442   0.00000  Uiso   1.00
C8787  C     0.29018   0.64391   0.18213   0.00000  Uiso   1.00
C8888  C     0.27889   0.65351   0.14135   0.00000  Uiso   1.00
C8989  C     0.25765   0.64261   0.14734   0.00000  Uiso   1.00
C9090  C     0.24718   0.62189   0.19703   0.00000  Uiso   1.00
C9191  C     0.25854   0.61234   0.23872   0.00000  Uiso   1.00
C9292  C     0.27978   0.62318   0.22995   0.00000  Uiso   1.00
C9393  C     0.22454   0.61033   0.20668   0.00000  Uiso   1.00
C9494  C     0.21367   0.61988   0.26632   0.00000  Uiso   1.00
C9595  C     0.19245   0.60898   0.27696   0.00000  Uiso   1.00
C9696  C     0.18161   0.58829   0.23138   0.00000  Uiso   1.00
C9797  C     0.19235   0.57870   0.16887   0.00000  Uiso   1.00
C9898  C     0.21357   0.58963   0.15656   0.00000  Uiso   1.00
N9999  N     0.67724   0.32237   0.22231   0.00000  Uiso   1.00
C100100 C     0.68761   0.34302   0.22782   0.00000  Uiso   1.00
C101101 C     0.64535   0.28941   0.21431   0.00000  Uiso   1.00
C102102 C     0.62458   0.27865   0.16768   0.00000  Uiso   1.00
C103103 C     0.61397   0.25741   0.16330   0.00000  Uiso   1.00
C104104 C     0.62381   0.24640   0.20797   0.00000  Uiso   1.00
C105105 C     0.64460   0.25722   0.25523   0.00000  Uiso   1.00
C106106 C     0.65527   0.27846   0.25713   0.00000  Uiso   1.00
C107107 C     0.61245   0.22377   0.20647   0.00000  Uiso   1.00
C108108 C     0.59191   0.21284   0.26225   0.00000  Uiso   1.00
C109109 C     0.58135   0.19160   0.26270   0.00000  Uiso   1.00
C110110 C     0.59105   0.18077   0.21031   0.00000  Uiso   1.00
C111111 C     0.61152   0.19161   0.15178   0.00000  Uiso   1.00
C112112 C     0.62206   0.21286   0.14990   0.00000  Uiso   1.00
O113113 O     0.02555   0.54162   0.31974   0.00000  Uiso   1.00
O114114 O     0.47543   0.45712   0.23291   0.00000  Uiso   1.00
C115115 C     0.52074   0.96733   0.41771   0.00000  Uiso   1.00
C116116 C     0.55492   0.02895   0.38125   0.00000  Uiso   1.00
C117117 C     0.47829   0.99076   0.30389   0.00000  Uiso   1.00
C118118 C     0.48656   0.97802   0.28679   0.00000  Uiso   1.00
C119119 C     0.50774   0.98641   0.27158   0.00000  Uiso   1.00
C120120 C     0.47324   0.95633   0.28068   0.00000  Uiso   1.00
C121121 C     0.46227   0.93816   0.27455   0.00000  Uiso   1.00
C122122 C     0.44940   0.91645   0.26625   0.00000  Uiso   1.00
C123123 C     0.42822   0.90776   0.26580   0.00000  Uiso   1.00
C124124 C     0.41574   0.88664   0.25645   0.00000  Uiso   1.00
C125125 C     0.42431   0.87400   0.24735   0.00000  Uiso   1.00
C126126 C     0.44563   0.88285   0.24806   0.00000  Uiso   1.00
C127127 C     0.45807   0.90397   0.25746   0.00000  Uiso   1.00
C128128 C     0.41085   0.85175   0.23681   0.00000  Uiso   1.00
C129129 C     0.52094   0.50815   0.29383   0.00000  Uiso   1.00
C130130 C     0.48758   0.47814   0.25919   0.00000  Uiso   1.00
C131131 C     0.50877   0.48704   0.27915   0.00000  Uiso   1.00
C132132 C     0.51815   0.47459   0.28048   0.00000  Uiso   1.00
C133133 C     0.52578   0.46398   0.28084   0.00000  Uiso   1.00
C134134 C     0.53468   0.45112   0.28023   0.00000  Uiso   1.00
C135135 C     0.52215   0.42997   0.28403   0.00000  Uiso   1.00
C136136 C     0.53073   0.41742   0.28131   0.00000  Uiso   1.00
C137137 C     0.55194   0.42588   0.27479   0.00000  Uiso   1.00
C138138 C     0.56445   0.44716   0.27150   0.00000  Uiso   1.00
C139139 C     0.55583   0.45970   0.27419   0.00000  Uiso   1.00
C140140 C     0.56061   0.41229   0.27052   0.00000  Uiso   1.00
N141141 N     0.58019   0.41967   0.26719   0.00000  Uiso   1.00
N142142 N     0.41840   0.83971   0.23186   0.00000  Uiso   1.00
N143143 N     0.35398   0.67676   0.16740   0.00000  Uiso   1.00
C144144 C     0.34344   0.68687   0.17432   0.00000  Uiso   1.00
C145145 C     0.35568   0.64520   0.15845   0.00000  Uiso   1.00
C146146 C     0.34597   0.62445   0.11175   0.00000  Uiso   1.00
C147147 C     0.35689   0.61412   0.10734   0.00000  Uiso   1.00
C148148 C     0.37775   0.62422   0.15200   0.00000  Uiso   1.00
C149149 C     0.38743   0.64500   0.19890   0.00000  Uiso   1.00
C150150 C     0.37656   0.65539   0.20086   0.00000  Uiso   1.00
C151151 C     0.38930   0.61311   0.15161   0.00000  Uiso   1.00
C152152 C     0.37992   0.59262   0.20805   0.00000  Uiso   1.00
C153153 C     0.39085   0.58230   0.21010   0.00000  Uiso   1.00
C154154 C     0.41140   0.59218   0.15876   0.00000  Uiso   1.00
C155155 C     0.42083   0.61261   0.09970   0.00000  Uiso   1.00
C156156 C     0.40986   0.62291   0.09605   0.00000  Uiso   1.00
N157157 N     0.67711   0.35319   0.23046   0.00000  Uiso   1.00
C158158 C     0.65645   0.34292   0.22772   0.00000  Uiso   1.00
C159159 C     0.71013   0.35432   0.23240   0.00000  Uiso   1.00
C160160 C     0.72116   0.34451   0.18917   0.00000  Uiso   1.00
C161161 C     0.74241   0.35517   0.19402   0.00000  Uiso   1.00
C162162 C     0.75315   0.37586   0.24460   0.00000  Uiso   1.00
C163163 C     0.74205   0.38564   0.28822   0.00000  Uiso   1.00
C164164 C     0.72081   0.37503   0.28098   0.00000  Uiso   1.00
C165165 C     0.77579   0.38716   0.25309   0.00000  Uiso   1.00
C166166 C     0.78648   0.37738   0.31139   0.00000  Uiso   1.00
C167167 C     0.80772   0.38802   0.31964   0.00000  Uiso   1.00
C168168 C     0.81875   0.40868   0.27326   0.00000  Uiso   1.00
C169169 C     0.80818   0.41852   0.21274   0.00000  Uiso   1.00
C170170 C     0.78694   0.40784   0.20269   0.00000  Uiso   1.00
O171171 O     0.45760   0.48110   0.21736   0.00000  Uiso   1.00
O172172 O     0.54149   0.01539   0.23982   0.00000  Uiso   1.00
C173173 C     0.03558   0.55295   0.48569   0.00000  Uiso   1.00
C174174 C     0.97543   0.52799   0.49245   0.00000  Uiso   1.00
C175175 C     0.00834   0.48365   0.84890   0.00000  Uiso   1.00
C176176 C     0.02095   0.50498   0.86096   0.00000  Uiso   1.00
C177177 C     0.01225   0.51733   0.88216   0.00000  Uiso   1.00
C178178 C     0.04271   0.51451   0.84216   0.00000  Uiso   1.00
C179179 C     0.06091   0.52237   0.82618   0.00000  Uiso   1.00
C180180 C     0.08260   0.53156   0.80707   0.00000  Uiso   1.00
C181181 C     0.09150   0.51929   0.79556   0.00000  Uiso   1.00
C182182 C     0.11258   0.52815   0.77770   0.00000  Uiso   1.00
C183183 C     0.12500   0.54938   0.77105   0.00000  Uiso   1.00
C184184 C     0.11595   0.56163   0.78226   0.00000  Uiso   1.00
C185185 C     0.09485   0.55273   0.80015   0.00000  Uiso   1.00
C186186 C     0.14724   0.55834   0.75331   0.00000  Uiso   1.00
C187187 C     0.48863   0.01216   0.76989   0.00000  Uiso   1.00
C188188 C     0.51858   0.00847   0.80264   0.00000  Uiso   1.00
C189189 C     0.50999   0.02095   0.78257   0.00000  Uiso   1.00
C190190 C     0.52332   0.04259   0.76651   0.00000  Uiso   1.00
C191191 C     0.53442   0.06070   0.75349   0.00000  Uiso   1.00
C192192 C     0.54751   0.08234   0.73900   0.00000  Uiso   1.00
C193193 C     0.56853   0.09062   0.71840   0.00000  Uiso   1.00
C194194 C     0.58127   0.11169   0.70692   0.00000  Uiso   1.00
C195195 C     0.57311   0.12469   0.71586   0.00000  Uiso   1.00
C196196 C     0.55195   0.11625   0.73561   0.00000  Uiso   1.00
C197197 C     0.53925   0.09518   0.74716   0.00000  Uiso   1.00
C198198 C     0.58686   0.14690   0.70592   0.00000  Uiso   1.00
N199199 N     0.57969   0.15924   0.71698   0.00000  Uiso   1.00
N200200 N     0.15918   0.57794   0.74929   0.00000  Uiso   1.00
N201201 N     0.32218   0.67646   0.67848   0.00000  Uiso   1.00
C202202 C     0.31202   0.65581   0.67531   0.00000  Uiso   1.00
C203203 C     0.35384   0.70965   0.67987   0.00000  Uiso   1.00
C204204 C     0.37469   0.72083   0.63661   0.00000  Uiso   1.00
C205205 C     0.38509   0.74206   0.64163   0.00000  Uiso   1.00
C206206 C     0.37496   0.75264   0.69240   0.00000  Uiso   1.00
C207207 C     0.35411   0.74139   0.73640   0.00000  Uiso   1.00
C208208 C     0.34365   0.72017   0.72901   0.00000  Uiso   1.00
C209209 C     0.38610   0.77526   0.70035   0.00000  Uiso   1.00
C210210 C     0.40658   0.78611   0.75822   0.00000  Uiso   1.00
C211211 C     0.41698   0.80733   0.76607   0.00000  Uiso   1.00
C212212 C     0.40716   0.81819   0.71963   0.00000  Uiso   1.00
C213213 C     0.38675   0.80747   0.65939   0.00000  Uiso   1.00
C214214 C     0.37638   0.78624   0.64979   0.00000  Uiso   1.00
N215215 N     0.64563   0.32253   0.72217   0.00000  Uiso   1.00
C216216 C     0.65597   0.31220   0.71911   0.00000  Uiso   1.00
C217217 C     0.64440   0.35433   0.73231   0.00000  Uiso   1.00
C218218 C     0.65423   0.37519   0.69009   0.00000  Uiso   1.00
C219219 C     0.64350   0.38572   0.69335   0.00000  Uiso   1.00
C220220 C     0.62273   0.37571   0.74155   0.00000  Uiso   1.00
C221221 C     0.61296   0.35484   0.78490   0.00000  Uiso   1.00
C222222 C     0.62363   0.34425   0.77901   0.00000  Uiso   1.00
C223223 C     0.61133   0.38697   0.74697   0.00000  Uiso   1.00
C224224 C     0.62098   0.40746   0.80422   0.00000  Uiso   1.00
C225225 C     0.61028   0.41800   0.80877   0.00000  Uiso   1.00
C226226 C     0.58967   0.40832   0.75983   0.00000  Uiso   1.00
C227227 C     0.57995   0.38789   0.70070   0.00000  Uiso   1.00
C228228 C     0.59069   0.37737   0.69420   0.00000  Uiso   1.00
O229229 O     0.01634   0.47073   0.81702   0.00000  Uiso   1.00
O230230 O     0.47935   0.02394   0.73803   0.00000  Uiso   1.00
C231231 C     0.51426   0.52310   0.75829   0.00000  Uiso   1.00
C232232 C     0.49287   0.51438   0.76327   0.00000  Uiso   1.00
C233233 C     0.48041   0.49334   0.78252   0.00000  Uiso   1.00
C234234 C     0.48343   0.52665   0.74027   0.00000  Uiso   1.00
C235235 C     0.47566   0.53705   0.72189   0.00000  Uiso   1.00
C236236 C     0.46663   0.54967   0.70152   0.00000  Uiso   1.00
C237237 C     0.47903   0.57065   0.67545   0.00000  Uiso   1.00
C238238 C     0.47035   0.58305   0.65971   0.00000  Uiso   1.00
C239239 C     0.44916   0.57461   0.66981   0.00000  Uiso   1.00
C240240 C     0.43676   0.55349   0.69467   0.00000  Uiso   1.00
C241241 C     0.44548   0.54110   0.71049   0.00000  Uiso   1.00
C242242 C     0.44042   0.58811   0.65638   0.00000  Uiso   1.00
C243243 C     0.98670   0.47427   0.85160   0.00000  Uiso   1.00
C244244 C     0.99079   0.50802   0.88504   0.00000  Uiso   1.00
C245245 C     0.97813   0.48701   0.86655   0.00000  Uiso   1.00
C246246 C     0.95649   0.47892   0.85356   0.00000  Uiso   1.00
C247247 C     0.93837   0.47203   0.84246   0.00000  Uiso   1.00
C248248 C     0.91672   0.46358   0.82917   0.00000  Uiso   1.00
C249249 C     0.90836   0.47637   0.82844   0.00000  Uiso   1.00
C250250 C     0.88729   0.46810   0.81573   0.00000  Uiso   1.00
C251251 C     0.87437   0.44696   0.80364   0.00000  Uiso   1.00
C252252 C     0.88289   0.43421   0.80427   0.00000  Uiso   1.00
C253253 C     0.90395   0.44251   0.81693   0.00000  Uiso   1.00
C254254 C     0.85217   0.43854   0.79077   0.00000  Uiso   1.00
N255255 N     0.83988   0.41901   0.78497   0.00000  Uiso   1.00
N256256 N     0.42089   0.58079   0.66795   0.00000  Uiso   1.00
N257257 N     0.32272   0.64586   0.66822   0.00000  Uiso   1.00
C258258 C     0.34338   0.65634   0.66411   0.00000  Uiso   1.00
C259259 C     0.28953   0.64425   0.68151   0.00000  Uiso   1.00
C260260 C     0.27822   0.65384   0.64099   0.00000  Uiso   1.00
C261261 C     0.25698   0.64291   0.64739   0.00000  Uiso   1.00
C262262 C     0.24653   0.62219   0.69710   0.00000  Uiso   1.00
C263263 C     0.25792   0.61265   0.73819   0.00000  Uiso   1.00
C264264 C     0.27915   0.62351   0.72912   0.00000  Uiso   1.00
C265265 C     0.22391   0.61061   0.70755   0.00000  Uiso   1.00
C266266 C     0.21301   0.62011   0.76790   0.00000  Uiso   1.00
C267267 C     0.19179   0.60917   0.77870   0.00000  Uiso   1.00
C268268 C     0.18098   0.58849   0.73273   0.00000  Uiso   1.00
C269269 C     0.19175   0.57894   0.66982   0.00000  Uiso   1.00
C270270 C     0.21296   0.58991   0.65728   0.00000  Uiso   1.00
N271271 N     0.67662   0.32272   0.72243   0.00000  Uiso   1.00
C272272 C     0.68696   0.34336   0.72843   0.00000  Uiso   1.00
C273273 C     0.64486   0.28971   0.71376   0.00000  Uiso   1.00
C274274 C     0.62410   0.27883   0.66685   0.00000  Uiso   1.00
C275275 C     0.61364   0.25759   0.66239   0.00000  Uiso   1.00
C276276 C     0.62361   0.24671   0.70731   0.00000  Uiso   1.00
C277277 C     0.64439   0.25765   0.75465   0.00000  Uiso   1.00
C278278 C     0.65491   0.27889   0.75656   0.00000  Uiso   1.00
C279279 C     0.61238   0.22407   0.70633   0.00000  Uiso   1.00
C280280 C     0.59185   0.21305   0.76208   0.00000  Uiso   1.00
C281281 C     0.58140   0.19182   0.76276   0.00000  Uiso   1.00
C282282 C     0.59120   0.18108   0.71069   0.00000  Uiso   1.00
C283283 C     0.61167   0.19199   0.65254   0.00000  Uiso   1.00
C284284 C     0.62211   0.21325   0.65039   0.00000  Uiso   1.00
O285285 O     0.52714   0.54393   0.72191   0.00000  Uiso   1.00
O286286 O     0.97463   0.45321   0.82210   0.00000  Uiso   1.00
C287287 C     0.47628   0.99088   0.77049   0.00000  Uiso   1.00
C288288 C     0.48514   0.97852   0.78680   0.00000  Uiso   1.00
C289289 C     0.50622   0.98738   0.80507   0.00000  Uiso   1.00
C290290 C     0.47271   0.95672   0.78063   0.00000  Uiso   1.00
C291291 C     0.46217   0.93849   0.77451   0.00000  Uiso   1.00
C292292 C     0.44945   0.91676   0.76628   0.00000  Uiso   1.00
C293293 C     0.42826   0.90800   0.76670   0.00000  Uiso   1.00
C294294 C     0.41584   0.88688   0.75741   0.00000  Uiso   1.00
C295295 C     0.42448   0.87430   0.74762   0.00000  Uiso   1.00
C296296 C     0.44580   0.88322   0.74746   0.00000  Uiso   1.00
C297297 C     0.45820   0.90435   0.75670   0.00000  Uiso   1.00
C298298 C     0.41104   0.85205   0.73734   0.00000  Uiso   1.00
C299299 C     0.52280   0.51030   0.76709   0.00000  Uiso   1.00
C300300 C     0.48891   0.48079   0.79076   0.00000  Uiso   1.00
C301301 C     0.50998   0.48914   0.78010   0.00000  Uiso   1.00
C302302 C     0.51842   0.47585   0.78183   0.00000  Uiso   1.00
C303303 C     0.52559   0.46482   0.78190   0.00000  Uiso   1.00
C304304 C     0.53427   0.45177   0.78069   0.00000  Uiso   1.00
C305305 C     0.52163   0.43063   0.78368   0.00000  Uiso   1.00
C306306 C     0.53009   0.41796   0.78062   0.00000  Uiso   1.00
C307307 C     0.55128   0.42629   0.77445   0.00000  Uiso   1.00
C308308 C     0.56390   0.44757   0.77187   0.00000  Uiso   1.00
C309309 C     0.55541   0.46021   0.77496   0.00000  Uiso   1.00
C310310 C     0.55986   0.41261   0.76973   0.00000  Uiso   1.00
N311311 N     0.57943   0.41992   0.76718   0.00000  Uiso   1.00
N312312 N     0.41858   0.84000   0.73142   0.00000  Uiso   1.00
N313313 N     0.35333   0.67698   0.66760   0.00000  Uiso   1.00
C314314 C     0.34285   0.68715   0.67468   0.00000  Uiso   1.00
C315315 C     0.35492   0.64539   0.65808   0.00000  Uiso   1.00
C316316 C     0.34516   0.62464   0.61116   0.00000  Uiso   1.00
C317317 C     0.35604   0.61426   0.60692   0.00000  Uiso   1.00
C318318 C     0.37688   0.62431   0.65215   0.00000  Uiso   1.00
C319319 C     0.38661   0.64509   0.69917   0.00000  Uiso   1.00
C320320 C     0.37579   0.65553   0.70080   0.00000  Uiso   1.00
C321321 C     0.38838   0.61316   0.65219   0.00000  Uiso   1.00
C322322 C     0.37897   0.59267   0.70878   0.00000  Uiso   1.00
C323323 C     0.38986   0.58232   0.71098   0.00000  Uiso   1.00
C324324 C     0.41041   0.59217   0.65938   0.00000  Uiso   1.00
C325325 C     0.41986   0.61260   0.60014   0.00000  Uiso   1.00
C326326 C     0.40893   0.62293   0.59666   0.00000  Uiso   1.00
N327327 N     0.67642   0.35349   0.73123   0.00000  Uiso   1.00
C328328 C     0.65575   0.34318   0.72815   0.00000  Uiso   1.00
C329329 C     0.70947   0.35466   0.73314   0.00000  Uiso   1.00
C330330 C     0.72048   0.34482   0.68961   0.00000  Uiso   1.00
C331331 C     0.74172   0.35546   0.69402   0.00000  Uiso   1.00
C332332 C     0.75249   0.37615   0.74460   0.00000  Uiso   1.00
C333333 C     0.74142   0.38594   0.78889   0.00000  Uiso   1.00
C334334 C     0.72017   0.37536   0.78196   0.00000  Uiso   1.00
C335335 C     0.77513   0.38741   0.75230   0.00000  Uiso   1.00
C336336 C     0.78579   0.37758   0.80992   0.00000  Uiso   1.00
C337337 C     0.80702   0.38819   0.81802   0.00000  Uiso   1.00
C338338 C     0.81808   0.40885   0.77205   0.00000  Uiso   1.00
C339339 C     0.80755   0.41874   0.71186   0.00000  Uiso   1.00
C340340 C     0.78631   0.40810   0.70202   0.00000  Uiso   1.00
O341341 O     0.45529   0.98213   0.74241   0.00000  Uiso   1.00
O342342 O     0.54387   0.51815   0.74885   0.00000  Uiso   1.00
C343343 C     0.55640   0.53340   0.88332   0.00000  Uiso   1.00
C344344 C     0.52663   0.55766   0.85773   0.00000  Uiso   1.00
C345345 C     1.44372   0.97692   0.91501   0.00000  Uiso   1.00
C346346 C     1.48231   1.03801   0.87972   0.00000  Uiso   1.00
C347347 C     0.96009   1.44202   0.96680   0.00000  Uiso   1.00
C348348 C     1.02963   1.47025   0.95818   0.00000  Uiso   1.00
H349349 H     0.01576   0.47712   0.39156   0.00000  Uiso   1.00
H350350 H     0.08225   0.50329   0.29979   0.00000  Uiso   1.00
H351351 H     0.11930   0.51836   0.26730   0.00000  Uiso   1.00
H352352 H     0.12616   0.57837   0.27797   0.00000  Uiso   1.00
H353353 H     0.08920   0.56318   0.31070   0.00000  Uiso   1.00
H354354 H     0.15376   0.54796   0.24621   0.00000  Uiso   1.00
H355355 H     0.48421   0.02146   0.31249   0.00000  Uiso   1.00
H356356 H     0.57554   0.08082   0.21238   0.00000  Uiso   1.00
H357357 H     0.59766   0.11786   0.19260   0.00000  Uiso   1.00
H358358 H     0.54497   0.12528   0.24236   0.00000  Uiso   1.00
H359359 H     0.52302   0.08822   0.26216   0.00000  Uiso   1.00
H360360 H     0.60288   0.15238   0.19670   0.00000  Uiso   1.00
H361361 H     0.38350   0.71311   0.09531   0.00000  Uiso   1.00
H362362 H     0.40135   0.75009   0.10172   0.00000  Uiso   1.00
H363363 H     0.34604   0.74846   0.27969   0.00000  Uiso   1.00
H364364 H     0.32800   0.71152   0.26438   0.00000  Uiso   1.00
H365365 H     0.41467   0.77809   0.30122   0.00000  Uiso   1.00
H366366 H     0.43269   0.81523   0.31225   0.00000  Uiso   1.00
H367367 H     0.37868   0.81486   0.11563   0.00000  Uiso   1.00
H368368 H     0.36086   0.77804   0.09889   0.00000  Uiso   1.00
H369369 H     0.67090   0.38308   0.15035   0.00000  Uiso   1.00
H370370 H     0.65218   0.40140   0.15373   0.00000  Uiso   1.00
H371371 H     0.59790   0.34651   0.32747   0.00000  Uiso   1.00
H372372 H     0.61640   0.32802   0.31456   0.00000  Uiso   1.00
H373373 H     0.63751   0.41507   0.34900   0.00000  Uiso   1.00
H374374 H     0.61876   0.43351   0.35407   0.00000  Uiso   1.00
H375375 H     0.56506   0.37985   0.15444   0.00000  Uiso   1.00
H376376 H     0.58369   0.36161   0.14372   0.00000  Uiso   1.00
H377377 H     0.43391   0.46979   0.41151   0.00000  Uiso   1.00
H378378 H     0.43832   0.49223   0.28500   0.00000  Uiso   1.00
H379379 H     0.45503   0.49411   0.47587   0.00000  Uiso   1.00
H380380 H     0.48139   0.44818   0.49468   0.00000  Uiso   1.00
H381381 H     0.45875   0.42973   0.37378   0.00000  Uiso   1.00
H382382 H     0.45903   0.45119   0.48595   0.00000  Uiso   1.00
H383383 H     0.52186   0.53683   0.29398   0.00000  Uiso   1.00
H384384 H     0.49598   0.57655   0.16842   0.00000  Uiso   1.00
H385385 H     0.48116   0.59878   0.13969   0.00000  Uiso   1.00
H386386 H     0.42104   0.54655   0.20387   0.00000  Uiso   1.00
H387387 H     0.43599   0.52456   0.23264   0.00000  Uiso   1.00
H388388 H     0.45178   0.60416   0.13967   0.00000  Uiso   1.00
H389389 H     0.97829   0.46132   0.39671   0.00000  Uiso   1.00
H390390 H     0.91832   0.49314   0.33998   0.00000  Uiso   1.00
H391391 H     0.88123   0.47817   0.31716   0.00000  Uiso   1.00
H392392 H     0.87438   0.41819   0.29464   0.00000  Uiso   1.00
H393393 H     0.91145   0.43332   0.31720   0.00000  Uiso   1.00
H394394 H     0.84682   0.44878   0.29324   0.00000  Uiso   1.00
H395395 H     0.28645   0.66942   0.10183   0.00000  Uiso   1.00
H396396 H     0.24945   0.65038   0.10995   0.00000  Uiso   1.00
H397397 H     0.25108   0.59656   0.28193   0.00000  Uiso   1.00
H398398 H     0.28805   0.61539   0.26434   0.00000  Uiso   1.00
H399399 H     0.22153   0.63568   0.30923   0.00000  Uiso   1.00
H400400 H     0.18441   0.61659   0.32478   0.00000  Uiso   1.00
H401401 H     0.18454   0.56295   0.12520   0.00000  Uiso   1.00
H402402 H     0.22134   0.58193   0.10398   0.00000  Uiso   1.00
H403403 H     0.61655   0.28664   0.13182   0.00000  Uiso   1.00
H404404 H     0.59812   0.24965   0.12193   0.00000  Uiso   1.00
H405405 H     0.65260   0.24930   0.29463   0.00000  Uiso   1.00
H406406 H     0.67122   0.28629   0.29567   0.00000  Uiso   1.00
H407407 H     0.58408   0.22066   0.30997   0.00000  Uiso   1.00
H408408 H     0.56560   0.18349   0.30770   0.00000  Uiso   1.00
H409409 H     0.61942   0.18392   0.10330   0.00000  Uiso   1.00
H410410 H     0.63764   0.22072   0.10031   0.00000  Uiso   1.00
H411411 H     0.52739   0.95757   0.38483   0.00000  Uiso   1.00
H412412 H     0.50674   0.95827   0.50316   0.00000  Uiso   1.00
H413413 H     0.53206   0.98065   0.50070   0.00000  Uiso   1.00
H414414 H     0.56516   0.04394   0.31550   0.00000  Uiso   1.00
H415415 H     0.56432   0.02272   0.43800   0.00000  Uiso   1.00
H416416 H     0.54682   0.03116   0.50192   0.00000  Uiso   1.00
H417417 H     0.46200   0.98441   0.31793   0.00000  Uiso   1.00
H418418 H     0.42136   0.91730   0.27243   0.00000  Uiso   1.00
H419419 H     0.39937   0.88016   0.25607   0.00000  Uiso   1.00
H420420 H     0.45268   0.87351   0.24107   0.00000  Uiso   1.00
H421421 H     0.47445   0.91056   0.25760   0.00000  Uiso   1.00
H422422 H     0.39457   0.84570   0.23780   0.00000  Uiso   1.00
H423423 H     0.53727   0.51510   0.30998   0.00000  Uiso   1.00
H424424 H     0.50575   0.42320   0.28865   0.00000  Uiso   1.00
H425425 H     0.52080   0.40107   0.28395   0.00000  Uiso   1.00
H426426 H     0.58085   0.45413   0.26631   0.00000  Uiso   1.00
H427427 H     0.56566   0.47606   0.27098   0.00000  Uiso   1.00
H428428 H     0.55029   0.39604   0.27426   0.00000  Uiso   1.00
H429429 H     0.32994   0.61622   0.07613   0.00000  Uiso   1.00
H430430 H     0.34901   0.59827   0.06616   0.00000  Uiso   1.00
H431431 H     0.40335   0.65319   0.23823   0.00000  Uiso   1.00
H432432 H     0.38446   0.67133   0.23938   0.00000  Uiso   1.00
H433433 H     0.36426   0.58465   0.25522   0.00000  Uiso   1.00
H434434 H     0.38337   0.56658   0.25575   0.00000  Uiso   1.00
H435435 H     0.43646   0.62066   0.05268   0.00000  Uiso   1.00
H436436 H     0.41743   0.63848   0.04622   0.00000  Uiso   1.00
H437437 H     0.71340   0.32861   0.14902   0.00000  Uiso   1.00
H438438 H     0.75041   0.34724   0.15518   0.00000  Uiso   1.00
H439439 H     0.74973   0.40141   0.33197   0.00000  Uiso   1.00
H440440 H     0.71275   0.38300   0.31703   0.00000  Uiso   1.00
H441441 H     0.77846   0.36159   0.35454   0.00000  Uiso   1.00
H442442 H     0.81563   0.38022   0.36591   0.00000  Uiso   1.00
H443443 H     0.81614   0.43424   0.16830   0.00000  Uiso   1.00
H444444 H     0.77930   0.41572   0.15126   0.00000  Uiso   1.00
H445445 H     0.04512   0.56921   0.44686   0.00000  Uiso   1.00
H446446 H     0.04564   0.54773   0.54798   0.00000  Uiso   1.00
H447447 H     0.02429   0.55165   0.59279   0.00000  Uiso   1.00
H448448 H     0.96325   0.51379   0.55777   0.00000  Uiso   1.00
H449449 H     0.96886   0.53772   0.45523   0.00000  Uiso   1.00
H450450 H     0.98784   0.53633   0.59647   0.00000  Uiso   1.00
H451451 H     0.02181   0.53367   0.89394   0.00000  Uiso   1.00
H452452 H     0.08215   0.50288   0.80060   0.00000  Uiso   1.00
H453453 H     0.11921   0.51842   0.76924   0.00000  Uiso   1.00
H454454 H     0.12514   0.57805   0.77746   0.00000  Uiso   1.00
H455455 H     0.08809   0.56235   0.80880   0.00000  Uiso   1.00
H456456 H     0.15337   0.54819   0.74904   0.00000  Uiso   1.00
H457457 H     0.53491   0.01505   0.81478   0.00000  Uiso   1.00
H458458 H     0.57507   0.08079   0.71172   0.00000  Uiso   1.00
H459459 H     0.59751   0.11785   0.69149   0.00000  Uiso   1.00
H460460 H     0.54521   0.12588   0.74299   0.00000  Uiso   1.00
H461461 H     0.52300   0.08893   0.76326   0.00000  Uiso   1.00
H462462 H     0.60303   0.15261   0.69425   0.00000  Uiso   1.00
H463463 H     0.38294   0.71320   0.59613   0.00000  Uiso   1.00
H464464 H     0.40101   0.75017   0.60253   0.00000  Uiso   1.00
H465465 H     0.34589   0.74896   0.78037   0.00000  Uiso   1.00
H466466 H     0.32764   0.71200   0.76518   0.00000  Uiso   1.00
H467467 H     0.41450   0.77823   0.80139   0.00000  Uiso   1.00
H468468 H     0.43270   0.81537   0.81200   0.00000  Uiso   1.00
H469469 H     0.37886   0.81530   0.61482   0.00000  Uiso   1.00
H470470 H     0.36086   0.77848   0.59861   0.00000  Uiso   1.00
H471471 H     0.67017   0.38335   0.65142   0.00000  Uiso   1.00
H472472 H     0.65144   0.40164   0.65475   0.00000  Uiso   1.00
H473473 H     0.59712   0.34670   0.82697   0.00000  Uiso   1.00
H474474 H     0.61567   0.32823   0.81444   0.00000  Uiso   1.00
H475475 H     0.63672   0.41528   0.84920   0.00000  Uiso   1.00
H476476 H     0.61799   0.43374   0.85390   0.00000  Uiso   1.00
H477477 H     0.56428   0.38008   0.65439   0.00000  Uiso   1.00
H478478 H     0.58291   0.36184   0.64348   0.00000  Uiso   1.00
H479479 H     0.46402   0.48655   0.78905   0.00000  Uiso   1.00
H480480 H     0.49541   0.57743   0.66809   0.00000  Uiso   1.00
H481481 H     0.48020   0.59927   0.64035   0.00000  Uiso   1.00
H482482 H     0.42038   0.54655   0.70309   0.00000  Uiso   1.00
H483483 H     0.43576   0.52488   0.73088   0.00000  Uiso   1.00
H484484 H     0.45074   0.60426   0.64214   0.00000  Uiso   1.00
H485485 H     0.98434   0.51787   0.89905   0.00000  Uiso   1.00
H486486 H     0.91813   0.49271   0.83778   0.00000  Uiso   1.00
H487487 H     0.88107   0.47821   0.81547   0.00000  Uiso   1.00
H488488 H     0.87333   0.41786   0.79491   0.00000  Uiso   1.00
H489489 H     0.91027   0.43248   0.81716   0.00000  Uiso   1.00
H490490 H     0.84636   0.44898   0.79150   0.00000  Uiso   1.00
H491491 H     0.28577   0.66975   0.60162   0.00000  Uiso   1.00
H492492 H     0.24876   0.65067   0.61051   0.00000  Uiso   1.00
H493493 H     0.25049   0.59687   0.78137   0.00000  Uiso   1.00
H494494 H     0.28744   0.61573   0.76323   0.00000  Uiso   1.00
H495495 H     0.22086   0.63590   0.81100   0.00000  Uiso   1.00
H496496 H     0.18373   0.61675   0.82688   0.00000  Uiso   1.00
H497497 H     0.18397   0.56321   0.62563   0.00000  Uiso   1.00
H498498 H     0.22075   0.58224   0.60417   0.00000  Uiso   1.00
H499499 H     0.61598   0.28673   0.63093   0.00000  Uiso   1.00
H500500 H     0.59778   0.24973   0.62089   0.00000  Uiso   1.00
H501501 H     0.65248   0.24983   0.79423   0.00000  Uiso   1.00
H502502 H     0.67086   0.28681   0.79527   0.00000  Uiso   1.00
H503503 H     0.58394   0.22080   0.80949   0.00000  Uiso   1.00
H504504 H     0.56565   0.18365   0.80760   0.00000  Uiso   1.00
H505505 H     0.61965   0.18436   0.60477   0.00000  Uiso   1.00
H506506 H     0.63770   0.22118   0.60107   0.00000  Uiso   1.00
H507507 H     0.51314   0.97796   0.81997   0.00000  Uiso   1.00
H508508 H     0.42135   0.91749   0.77402   0.00000  Uiso   1.00
H509509 H     0.39947   0.88035   0.75774   0.00000  Uiso   1.00
H510510 H     0.45290   0.87391   0.73987   0.00000  Uiso   1.00
H511511 H     0.47459   0.91101   0.75603   0.00000  Uiso   1.00
H512512 H     0.39476   0.84600   0.73946   0.00000  Uiso   1.00
H513513 H     0.47902   0.46452   0.80479   0.00000  Uiso   1.00
H514514 H     0.50524   0.42396   0.78795   0.00000  Uiso   1.00
H515515 H     0.52007   0.40163   0.78264   0.00000  Uiso   1.00
H516516 H     0.58030   0.45444   0.76696   0.00000  Uiso   1.00
H517517 H     0.56533   0.47656   0.77239   0.00000  Uiso   1.00
H518518 H     0.54949   0.39637   0.77239   0.00000  Uiso   1.00
H519519 H     0.32914   0.61645   0.57523   0.00000  Uiso   1.00
H520520 H     0.34814   0.59842   0.56559   0.00000  Uiso   1.00
H521521 H     0.40251   0.65323   0.73894   0.00000  Uiso   1.00
H522522 H     0.38372   0.67146   0.73949   0.00000  Uiso   1.00
H523523 H     0.36330   0.58472   0.75586   0.00000  Uiso   1.00
H524524 H     0.38236   0.56660   0.75671   0.00000  Uiso   1.00
H525525 H     0.43547   0.62063   0.55264   0.00000  Uiso   1.00
H526526 H     0.41652   0.63849   0.54669   0.00000  Uiso   1.00
H527527 H     0.71270   0.32894   0.64929   0.00000  Uiso   1.00
H528528 H     0.74969   0.34752   0.65464   0.00000  Uiso   1.00
H529529 H     0.74913   0.40171   0.83272   0.00000  Uiso   1.00
H530530 H     0.71213   0.38334   0.81832   0.00000  Uiso   1.00
H531531 H     0.77776   0.36179   0.85289   0.00000  Uiso   1.00
H532532 H     0.81492   0.38036   0.86396   0.00000  Uiso   1.00
H533533 H     0.81555   0.43448   0.66789   0.00000  Uiso   1.00
H534534 H     0.77868   0.41601   0.65108   0.00000  Uiso   1.00
H535535 H     0.56613   0.54793   0.80790   0.00000  Uiso   1.00
H536536 H     0.56638   0.52862   0.95451   0.00000  Uiso   1.00
H537537 H     0.54754   0.53592   0.99489   0.00000  Uiso   1.00
H538538 H     0.51660   0.54982   0.98077   0.00000  Uiso   1.00
H539539 H     0.52135   0.56727   0.78741   0.00000  Uiso   1.00
H540540 H     0.54225   0.56770   0.91213   0.00000  Uiso   1.00
H541541 H     1.44566   0.96568   1.00014   0.00000  Uiso   1.00
H542542 H     1.42733   0.97024   0.88130   0.00000  Uiso   1.00
H543543 H     1.44866   0.99104   0.99869   0.00000  Uiso   1.00
H544544 H     1.49008   1.05335   0.81447   0.00000  Uiso   1.00
H545545 H     1.49156   1.03786   1.00103   0.00000  Uiso   1.00
H546546 H     1.46737   1.03498   0.93549   0.00000  Uiso   1.00
H547547 H     0.96307   1.43006   1.02184   0.00000  Uiso   1.00
H548548 H     0.94458   1.43455   0.90477   0.00000  Uiso   1.00
H549549 H     0.96065   1.45162   1.08810   0.00000  Uiso   1.00
H550550 H     1.04466   1.47518   0.89228   0.00000  Uiso   1.00
H551551 H     1.02358   1.45463   1.01444   0.00000  Uiso   1.00
H552552 H     1.03171   1.48047   1.07923   0.00000  Uiso   1.00
loop_
_geom_bond_atom_site_label_1
_geom_bond_atom_site_label_2
_geom_bond_distance
_geom_bond_site_symmetry_2
_ccdc_geom_bond_type
C11    C22     1.399   .     D
C11    H349349  1.084   .     S
C11    C7171   1.414   1_455 S
C22    C33     1.409   .     S
C22    C44     1.439   .     S
C33    O113113  1.401   .     S
C33    C7272   1.427   1_455 D
C44    C55     1.204   .     T
C55    C66     1.436   .     S
C66    C77     1.399   .     D
C66    C1111   1.399   .     S
C77    C88     1.398   .     S
C77    H350350  1.083   .     S
C88    C99     1.404   .     D
C88    H351351  1.082   .     S
C99    C1010   1.408   .     S
C99    C1212   1.475   .     S
C1010  C1111   1.397   .     D
C1010  H352352  1.082   .     S
C1111  H353353  1.084   .     S
C1212  N2626   1.300   .     D
C1212  H354354  1.081   .     S
C1313  C1515   1.400   .     D
C1313  H355355  1.083   .     S
C1313  C117117  1.394   1_545 S
C1414  C1515   1.414   .     S
C1414  O172172  1.405   .     S
C1414  C119119  1.405   1_545 D
C1515  C1616   1.440   .     S
C1616  C1717   1.205   .     T
C1717  C1818   1.437   .     S
C1818  C1919   1.399   .     D
C1818  C2323   1.399   .     S
C1919  C2020   1.397   .     S
C1919  H356356  1.082   .     S
C2020  C2121   1.403   .     D
C2020  H357357  1.083   .     S
C2121  C2222   1.407   .     S
C2121  C2424   1.475   .     S
C2222  C2323   1.398   .     D
C2222  H358358  1.083   .     S
C2323  H359359  1.083   .     S
C2424  N2525   1.300   .     D
C2424  H360360  1.081   .     S
N2525  C110110  1.438   .     S
N2626  C9696   1.437   .     S
N2727  C2828   1.358   .     D
N2727  C144144  1.358   .     S
C2828  N8585   1.358   .     S
C2828  C8787   1.479   .     S
C2929  C3030   1.404   .     S
C2929  C3434   1.405   .     D
C2929  C144144  1.479   .     S
C3030  C3131   1.397   .     D
C3030  H361361  1.083   .     S
C3131  C3232   1.407   .     S
C3131  H362362  1.081   .     S
C3232  C3333   1.407   .     D
C3232  C3535   1.489   .     S
C3333  C3434   1.396   .     S
C3333  H363363  1.083   .     S
C3434  H364364  1.083   .     S
C3535  C3636   1.407   .     S
C3535  C4040   1.408   .     D
C3636  C3737   1.396   .     D
C3636  H365365  1.082   .     S
C3737  C3838   1.399   .     S
C3737  H366366  1.082   .     S
C3838  C3939   1.407   .     D
C3838  N142142  1.437   .     S
C3939  C4040   1.397   .     S
C3939  H367367  1.081   .     S
C4040  H368368  1.082   .     S
N4141  C4242   1.358   .     D
N4141  C158158  1.358   .     S
C4242  N9999   1.359   .     S
C4242  C101101  1.479   .     S
C4343  C4444   1.404   .     D
C4343  C4848   1.404   .     S
C4343  C158158  1.479   .     S
C4444  C4545   1.396   .     S
C4444  H369369  1.082   .     S
C4545  C4646   1.407   .     D
C4545  H370370  1.082   .     S
C4646  C4747   1.407   .     S
C4646  C4949   1.489   .     S
C4747  C4848   1.397   .     D
C4747  H371371  1.082   .     S
C4848  H372372  1.082   .     S
C4949  C5050   1.407   .     D
C4949  C5454   1.407   .     S
C5050  C5151   1.397   .     S
C5050  H373373  1.082   .     S
C5151  C5252   1.398   .     D
C5151  H374374  1.082   .     S
C5252  C5353   1.407   .     S
C5252  N141141  1.437   .     S
C5353  C5454   1.397   .     D
C5353  H375375  1.080   .     S
C5454  H376376  1.082   .     S
O5555  C115115  1.425   .     S
O5555  C119119  1.400   .     S
O5656  C7272   1.402   .     S
O5656  C174174  1.426   .     S
C5757  O171171  1.430   .     S
C5757  H377377  1.109   .     S
C5757  H378378  1.109   .     S
C5757  H379379  1.110   .     S
C5858  O114114  1.425   .     S
C5858  H380380  1.111   .     S
C5858  H381381  1.109   .     S
C5858  H382382  1.112   .     S
C5959  C6060   1.400   .     D
C5959  C129129  1.394   .     S
C5959  H383383  1.084   .     S
C6060  C6161   1.413   .     S
C6060  C6262   1.441   .     S
C6161  C130130  1.405   .     D
C6161  O171171  1.405   .     S
C6262  C6363   1.204   .     T
C6363  C6464   1.438   .     S
C6464  C6565   1.399   .     D
C6464  C6969   1.399   .     S
C6565  C6666   1.399   .     S
C6565  H384384  1.083   .     S
C6666  C6767   1.404   .     D
C6666  H385385  1.083   .     S
C6767  C6868   1.407   .     S
C6767  C7070   1.477   .     S
C6868  C6969   1.397   .     D
C6868  H386386  1.083   .     S
C6969  H387387  1.083   .     S
C7070  N8484   1.300   .     D
C7070  H388388  1.080   .     S
C7171  C7373   1.399   .     D
C7171  H389389  1.083   .     S
C7171  C11     1.414   1_655 S
C7272  C7373   1.409   .     S
C7272  C33     1.427   1_655 D
C7373  C7474   1.439   .     S
C7474  C7575   1.204   .     T
C7575  C7676   1.437   .     S
C7676  C7777   1.399   .     D
C7676  C8181   1.399   .     S
C7777  C7878   1.397   .     S
C7777  H390390  1.083   .     S
C7878  C7979   1.404   .     D
C7878  H391391  1.083   .     S
C7979  C8080   1.407   .     S
C7979  C8282   1.476   .     S
C8080  C8181   1.398   .     D
C8080  H392392  1.083   .     S
C8181  H393393  1.084   .     S
C8282  N8383   1.299   .     D
C8282  H394394  1.082   .     S
N8383  C168168  1.437   .     S
N8484  C154154  1.437   .     S
N8585  C8686   1.358   .     D
C8686  N143143  1.358   .     S
C8686  C145145  1.480   .     S
C8787  C8888   1.404   .     D
C8787  C9292   1.404   .     S
C8888  C8989   1.397   .     S
C8888  H395395  1.083   .     S
C8989  C9090   1.407   .     D
C8989  H396396  1.082   .     S
C9090  C9191   1.407   .     S
C9090  C9393   1.489   .     S
C9191  C9292   1.397   .     D
C9191  H397397  1.082   .     S
C9292  H398398  1.083   .     S
C9393  C9494   1.407   .     D
C9393  C9898   1.407   .     S
C9494  C9595   1.397   .     S
C9494  H399399  1.082   .     S
C9595  C9696   1.399   .     D
C9595  H400400  1.082   .     S
C9696  C9797   1.407   .     S
C9797  C9898   1.397   .     D
C9797  H401401  1.081   .     S
C9898  H402402  1.082   .     S
N9999  C100100  1.358   .     D
C100100 N157157  1.358   .     S
C100100 C159159  1.480   .     S
C101101 C102102  1.404   .     D
C101101 C106106  1.405   .     S
C102102 C103103  1.397   .     S
C102102 H403403  1.082   .     S
C103103 C104104  1.406   .     D
C103103 H404404  1.082   .     S
C104104 C105105  1.407   .     S
C104104 C107107  1.488   .     S
C105105 C106106  1.397   .     D
C105105 H405405  1.082   .     S
C106106 H406406  1.083   .     S
C107107 C108108  1.407   .     D
C107107 C112112  1.407   .     S
C108108 C109109  1.397   .     S
C108108 H407407  1.082   .     S
C109109 C110110  1.399   .     D
C109109 H408408  1.083   .     S
C110110 C111111  1.408   .     S
C111111 C112112  1.397   .     D
C111111 H409409  1.080   .     S
C112112 H410410  1.082   .     S
O113113 C173173  1.427   .     S
O114114 C130130  1.400   .     S
C115115 H411411  1.109   .     S
C115115 H412412  1.111   .     S
C115115 H413413  1.111   .     S
C116116 O172172  1.430   .     S
C116116 H414414  1.109   .     S
C116116 H415415  1.109   .     S
C116116 H416416  1.111   .     S
C117117 C118118  1.396   .     D
C117117 H417417  1.084   .     S
C117117 C1313   1.394   1_565 S
C118118 C119119  1.406   .     S
C118118 C120120  1.439   .     S
C119119 C1414   1.405   1_565 D
C120120 C121121  1.204   .     T
C121121 C122122  1.437   .     S
C122122 C123123  1.399   .     D
C122122 C127127  1.399   .     S
C123123 C124124  1.398   .     S
C123123 H418418  1.083   .     S
C124124 C125125  1.404   .     D
C124124 H419419  1.083   .     S
C125125 C126126  1.408   .     S
C125125 C128128  1.476   .     S
C126126 C127127  1.398   .     D
C126126 H420420  1.081   .     S
C127127 H421421  1.083   .     S
C128128 N142142  1.299   .     D
C128128 H422422  1.081   .     S
C129129 C131131  1.397   .     D
C129129 H423423  1.083   .     S
C130130 C131131  1.405   .     S
C131131 C132132  1.439   .     S
C132132 C133133  1.204   .     T
C133133 C134134  1.438   .     S
C134134 C135135  1.399   .     D
C134134 C139139  1.399   .     S
C135135 C136136  1.397   .     S
C135135 H424424  1.084   .     S
C136136 C137137  1.404   .     D
C136136 H425425  1.084   .     S
C137137 C138138  1.407   .     S
C137137 C140140  1.475   .     S
C138138 C139139  1.398   .     D
C138138 H426426  1.082   .     S
C139139 H427427  1.083   .     S
C140140 N141141  1.300   .     D
C140140 H428428  1.082   .     S
N143143 C144144  1.358   .     D
C145145 C146146  1.405   .     D
C145145 C150150  1.404   .     S
C146146 C147147  1.397   .     S
C146146 H429429  1.083   .     S
C147147 C148148  1.407   .     D
C147147 H430430  1.082   .     S
C148148 C149149  1.407   .     S
C148148 C151151  1.489   .     S
C149149 C150150  1.397   .     D
C149149 H431431  1.083   .     S
C150150 H432432  1.083   .     S
C151151 C152152  1.406   .     D
C151151 C156156  1.407   .     S
C152152 C153153  1.396   .     S
C152152 H433433  1.082   .     S
C153153 C154154  1.398   .     D
C153153 H434434  1.083   .     S
C154154 C155155  1.408   .     S
C155155 C156156  1.398   .     D
C155155 H435435  1.080   .     S
C156156 H436436  1.083   .     S
N157157 C158158  1.358   .     D
C159159 C160160  1.403   .     D
C159159 C164164  1.405   .     S
C160160 C161161  1.397   .     S
C160160 H437437  1.083   .     S
C161161 C162162  1.407   .     D
C161161 H438438  1.082   .     S
C162162 C163163  1.407   .     S
C162162 C165165  1.489   .     S
C163163 C164164  1.397   .     D
C163163 H439439  1.082   .     S
C164164 H440440  1.083   .     S
C165165 C166166  1.407   .     S
C165165 C170170  1.407   .     D
C166166 C167167  1.397   .     D
C166166 H441441  1.082   .     S
C167167 C168168  1.398   .     S
C167167 H442442  1.083   .     S
C168168 C169169  1.408   .     D
C169169 C170170  1.398   .     S
C169169 H443443  1.080   .     S
C170170 H444444  1.082   .     S
C173173 H445445  1.109   .     S
C173173 H446446  1.111   .     S
C173173 H447447  1.109   .     S
C174174 H448448  1.110   .     S
C174174 H449449  1.109   .     S
C174174 H450450  1.109   .     S
C175175 C176176  1.413   .     D
C175175 O229229  1.405   .     S
C175175 C243243  1.426   1_455 S
C176176 C177177  1.398   .     S
C176176 C178178  1.440   .     S
C177177 H451451  1.083   .     S
C177177 C244244  1.414   1_455 D
C178178 C179179  1.205   .     T
C179179 C180180  1.437   .     S
C180180 C181181  1.399   .     D
C180180 C185185  1.399   .     S
C181181 C182182  1.397   .     S
C181181 H452452  1.083   .     S
C182182 C183183  1.404   .     D
C182182 H453453  1.083   .     S
C183183 C184184  1.407   .     S
C183183 C186186  1.476   .     S
C184184 C185185  1.398   .     D
C184184 H454454  1.083   .     S
C185185 H455455  1.083   .     S
C186186 N200200  1.299   .     D
C186186 H456456  1.081   .     S
C187187 C189189  1.414   .     D
C187187 O230230  1.405   .     S
C187187 C287287  1.405   1_545 S
C188188 C189189  1.399   .     S
C188188 H457457  1.083   .     S
C188188 C289289  1.394   1_545 D
C189189 C190190  1.440   .     S
C190190 C191191  1.204   .     T
C191191 C192192  1.437   .     S
C192192 C193193  1.399   .     D
C192192 C197197  1.398   .     S
C193193 C194194  1.398   .     S
C193193 H458458  1.084   .     S
C194194 C195195  1.404   .     D
C194194 H459459  1.083   .     S
C195195 C196196  1.407   .     S
C195195 C198198  1.476   .     S
C196196 C197197  1.398   .     D
C196196 H460460  1.082   .     S
C197197 H461461  1.083   .     S
C198198 N199199  1.299   .     D
C198198 H462462  1.081   .     S
N199199 C282282  1.438   .     S
N200200 C268268  1.438   .     S
N201201 C202202  1.358   .     D
N201201 C314314  1.359   .     S
C202202 N257257  1.358   .     S
C202202 C259259  1.479   .     S
C203203 C204204  1.405   .     S
C203203 C208208  1.404   .     D
C203203 C314314  1.480   .     S
C204204 C205205  1.397   .     D
C204204 H463463  1.082   .     S
C205205 C206206  1.407   .     S
C205205 H464464  1.082   .     S
C206206 C207207  1.406   .     D
C206206 C209209  1.489   .     S
C207207 C208208  1.396   .     S
C207207 H465465  1.083   .     S
C208208 H466466  1.083   .     S
C209209 C210210  1.407   .     S
C209209 C214214  1.407   .     D
C210210 C211211  1.397   .     D
C210210 H467467  1.082   .     S
C211211 C212212  1.398   .     S
C211211 H468468  1.083   .     S
C212212 C213213  1.408   .     D
C212212 N312312  1.437   .     S
C213213 C214214  1.398   .     S
C213213 H469469  1.080   .     S
C214214 H470470  1.082   .     S
N215215 C216216  1.358   .     D
N215215 C328328  1.359   .     S
C216216 N271271  1.357   .     S
C216216 C273273  1.479   .     S
C217217 C218218  1.404   .     D
C217217 C222222  1.404   .     S
C217217 C328328  1.479   .     S
C218218 C219219  1.397   .     S
C218218 H471471  1.083   .     S
C219219 C220220  1.407   .     D
C219219 H472472  1.082   .     S
C220220 C221221  1.407   .     S
C220220 C223223  1.489   .     S
C221221 C222222  1.397   .     D
C221221 H473473  1.083   .     S
C222222 H474474  1.083   .     S
C223223 C224224  1.407   .     D
C223223 C228228  1.408   .     S
C224224 C225225  1.396   .     S
C224224 H475475  1.082   .     S
C225225 C226226  1.398   .     D
C225225 H476476  1.083   .     S
C226226 C227227  1.407   .     S
C226226 N311311  1.437   .     S
C227227 C228228  1.398   .     D
C227227 H477477  1.080   .     S
C228228 H478478  1.082   .     S
O229229 C348348  1.430   1_445 S
O230230 C346346  1.397   1_445 S
C231231 C232232  1.414   .     D
C231231 O285285  1.406   .     S
C231231 C299299  1.413   .     S
C232232 C233233  1.398   .     S
C232232 C234234  1.440   .     S
C233233 C300300  1.393   .     D
C233233 H479479  1.083   .     S
C234234 C235235  1.205   .     T
C235235 C236236  1.436   .     S
C236236 C237237  1.399   .     D
C236236 C241241  1.399   .     S
C237237 C238238  1.397   .     S
C237237 H480480  1.083   .     S
C238238 C239239  1.404   .     D
C238238 H481481  1.083   .     S
C239239 C240240  1.407   .     S
C239239 C242242  1.475   .     S
C240240 C241241  1.398   .     D
C240240 H482482  1.082   .     S
C241241 H483483  1.083   .     S
C242242 N256256  1.299   .     D
C242242 H484484  1.080   .     S
C243243 C245245  1.413   .     D
C243243 O286286  1.405   .     S
C243243 C175175  1.426   1_655 S
C244244 C245245  1.397   .     S
C244244 H485485  1.083   .     S
C244244 C177177  1.414   1_655 D
C245245 C246246  1.440   .     S
C246246 C247247  1.204   .     T
C247247 C248248  1.437   .     S
C248248 C249249  1.400   .     D
C248248 C253253  1.399   .     S
C249249 C250250  1.398   .     S
C249249 H486486  1.083   .     S
C250250 C251251  1.404   .     D
C250250 H487487  1.083   .     S
C251251 C252252  1.407   .     S
C251251 C254254  1.476   .     S
C252252 C253253  1.397   .     D
C252252 H488488  1.082   .     S
C253253 H489489  1.083   .     S
C254254 N255255  1.299   .     D
C254254 H490490  1.082   .     S
N255255 C338338  1.437   .     S
N256256 C324324  1.438   .     S
N257257 C258258  1.358   .     D
C258258 N313313  1.358   .     S
C258258 C315315  1.478   .     S
C259259 C260260  1.404   .     D
C259259 C264264  1.405   .     S
C260260 C261261  1.397   .     S
C260260 H491491  1.083   .     S
C261261 C262262  1.407   .     D
C261261 H492492  1.082   .     S
C262262 C263263  1.407   .     S
C262262 C265265  1.488   .     S
C263263 C264264  1.397   .     D
C263263 H493493  1.082   .     S
C264264 H494494  1.083   .     S
C265265 C266266  1.407   .     D
C265265 C270270  1.407   .     S
C266266 C267267  1.397   .     S
C266266 H495495  1.082   .     S
C267267 C268268  1.398   .     D
C267267 H496496  1.082   .     S
C268268 C269269  1.408   .     S
C269269 C270270  1.397   .     D
C269269 H497497  1.080   .     S
C270270 H498498  1.083   .     S
N271271 C272272  1.358   .     D
C272272 N327327  1.358   .     S
C272272 C329329  1.480   .     S
C273273 C274274  1.404   .     D
C273273 C278278  1.404   .     S
C274274 C275275  1.397   .     S
C274274 H499499  1.083   .     S
C275275 C276276  1.406   .     D
C275275 H500500  1.083   .     S
C276276 C277277  1.406   .     S
C276276 C279279  1.489   .     S
C277277 C278278  1.397   .     D
C277277 H501501  1.082   .     S
C278278 H502502  1.083   .     S
C279279 C280280  1.407   .     D
C279279 C284284  1.407   .     S
C280280 C281281  1.396   .     S
C280280 H503503  1.082   .     S
C281281 C282282  1.399   .     D
C281281 H504504  1.083   .     S
C282282 C283283  1.407   .     S
C283283 C284284  1.398   .     D
C283283 H505505  1.080   .     S
C284284 H506506  1.082   .     S
O285285 C344344  1.430   .     S
O286286 C347347  1.430   1_545 S
C287287 C288288  1.405   .     D
C287287 O341341  1.400   .     S
C287287 C187187  1.405   1_565 S
C288288 C289289  1.397   .     S
C288288 C290290  1.439   .     S
C289289 H507507  1.083   .     S
C289289 C188188  1.394   1_565 D
C290290 C291291  1.204   .     T
C291291 C292292  1.437   .     S
C292292 C293293  1.399   .     D
C292292 C297297  1.399   .     S
C293293 C294294  1.398   .     S
C293293 H508508  1.083   .     S
C294294 C295295  1.404   .     D
C294294 H509509  1.083   .     S
C295295 C296296  1.407   .     S
C295295 C298298  1.475   .     S
C296296 C297297  1.398   .     D
C296296 H510510  1.083   .     S
C297297 H511511  1.083   .     S
C298298 N312312  1.299   .     D
C298298 H512512  1.081   .     S
C299299 C301301  1.405   .     D
C299299 O342342  1.405   .     S
C300300 C301301  1.396   .     S
C300300 H513513  1.083   .     S
C301301 C302302  1.440   .     S
C302302 C303303  1.205   .     T
C303303 C304304  1.437   .     S
C304304 C305305  1.399   .     D
C304304 C309309  1.399   .     S
C305305 C306306  1.398   .     S
C305305 H514514  1.084   .     S
C306306 C307307  1.404   .     D
C306306 H515515  1.083   .     S
C307307 C308308  1.408   .     S
C307307 C310310  1.476   .     S
C308308 C309309  1.397   .     D
C308308 H516516  1.083   .     S
C309309 H517517  1.083   .     S
C310310 N311311  1.300   .     D
C310310 H518518  1.082   .     S
N313313 C314314  1.358   .     D
C315315 C316316  1.405   .     D
C315315 C320320  1.404   .     S
C316316 C317317  1.397   .     S
C316316 H519519  1.083   .     S
C317317 C318318  1.406   .     D
C317317 H520520  1.082   .     S
C318318 C319319  1.407   .     S
C318318 C321321  1.488   .     S
C319319 C320320  1.397   .     D
C319319 H521521  1.082   .     S
C320320 H522522  1.082   .     S
C321321 C322322  1.407   .     D
C321321 C326326  1.407   .     S
C322322 C323323  1.396   .     S
C322322 H523523  1.082   .     S
C323323 C324324  1.399   .     D
C323323 H524524  1.083   .     S
C324324 C325325  1.408   .     S
C325325 C326326  1.397   .     D
C325325 H525525  1.079   .     S
C326326 H526526  1.082   .     S
N327327 C328328  1.359   .     D
C329329 C330330  1.405   .     D
C329329 C334334  1.404   .     S
C330330 C331331  1.396   .     S
C330330 H527527  1.082   .     S
C331331 C332332  1.407   .     D
C331331 H528528  1.082   .     S
C332332 C333333  1.406   .     S
C332332 C335335  1.489   .     S
C333333 C334334  1.397   .     D
C333333 H529529  1.082   .     S
C334334 H530530  1.083   .     S
C335335 C336336  1.407   .     S
C335335 C340340  1.407   .     D
C336336 C337337  1.396   .     D
C336336 H531531  1.082   .     S
C337337 C338338  1.398   .     S
C337337 H532532  1.083   .     S
C338338 C339339  1.407   .     D
C339339 C340340  1.398   .     S
C339339 H533533  1.081   .     S
C340340 H534534  1.082   .     S
O341341 C345345  1.436   1_455 S
O342342 C343343  1.430   .     S
C343343 H535535  1.110   .     S
C343343 H536536  1.110   .     S
C343343 H537537  1.112   .     S
C344344 H538538  1.111   .     S
C344344 H539539  1.109   .     S
C344344 H540540  1.109   .     S
C345345 H541541  1.112   .     S
C345345 H542542  1.109   .     S
C345345 H543543  1.112   .     S
C345345 O341341  1.436   1_655 S
C346346 H544544  1.109   .     S
C346346 H545545  1.110   .     S
C346346 H546546  1.110   .     S
C346346 O230230  1.397   1_665 S
C347347 H547547  1.109   .     S
C347347 H548548  1.109   .     S
C347347 H549549  1.111   .     S
C347347 O286286  1.430   1_565 S
C348348 H550550  1.109   .     S
C348348 H551551  1.109   .     S
C348348 H552552  1.111   .     S
C348348 O229229  1.430   1_665 S
