data_941
_audit_creation_date              2023-09-08
_audit_creation_method            'Materials Studio'
_symmetry_space_group_name_H-M    'P1'
_symmetry_Int_Tables_number       1
_symmetry_cell_setting            triclinic
loop_
_symmetry_equiv_pos_as_xyz
  x,y,z
_cell_length_a                    99.3859
_cell_length_b                    99.1180
_cell_length_c                    7.0743
_cell_angle_alpha                 90.0000
_cell_angle_beta                  90.0000
_cell_angle_gamma                 120.0000
loop_
_atom_site_label
_atom_site_type_symbol
_atom_site_fract_x
_atom_site_fract_y
_atom_site_fract_z
_atom_site_U_iso_or_equiv
_atom_site_adp_type
_atom_site_occupancy
N11    N     0.34928   0.67613   0.21709   0.00000  Uiso   1.00
C22    C     0.31782   0.65977   0.18914   0.00000  Uiso   1.00
C33    C     0.35111   0.65272   0.14965   0.00000  Uiso   1.00
C44    C     0.34383   0.63708   0.09130   0.00000  Uiso   1.00
C55    C     0.35236   0.62945   0.07184   0.00000  Uiso   1.00
C66    C     0.36836   0.63722   0.11215   0.00000  Uiso   1.00
C77    C     0.37565   0.65291   0.16880   0.00000  Uiso   1.00
C88    C     0.36715   0.66058   0.18649   0.00000  Uiso   1.00
C99    C     0.37735   0.62895   0.09817   0.00000  Uiso   1.00
C1010  C     0.37050   0.61312   0.14730   0.00000  Uiso   1.00
C1111  C     0.37904   0.60544   0.13768   0.00000  Uiso   1.00
C1212  C     0.39461   0.61337   0.08126   0.00000  Uiso   1.00
C1313  C     0.40149   0.62917   0.02953   0.00000  Uiso   1.00
C1414  C     0.39294   0.63684   0.03814   0.00000  Uiso   1.00
C1515  C     0.00838   0.51580   0.09156   0.00000  Uiso   1.00
C1616  C     0.00646   0.49046   0.05720   0.00000  Uiso   1.00
C1717  C     0.01559   0.50684   0.07276   0.00000  Uiso   1.00
C1818  C     0.16813   0.58684   0.07592   0.00000  Uiso   1.00
C1919  C     0.15196   0.57995   0.06841   0.00000  Uiso   1.00
C2020  C     0.14266   0.56377   0.05222   0.00000  Uiso   1.00
C2121  C     0.14959   0.55448   0.04295   0.00000  Uiso   1.00
C2222  C     0.16575   0.56135   0.05050   0.00000  Uiso   1.00
C2323  C     0.17517   0.57757   0.06743   0.00000  Uiso   1.00
C2424  C     0.19219   0.58451   0.07749   0.00000  Uiso   1.00
N2525  N     0.20122   0.59951   0.08937   0.00000  Uiso   1.00
C2626  C     0.12602   0.55665   0.04760   0.00000  Uiso   1.00
C2727  C     0.11206   0.55058   0.04514   0.00000  Uiso   1.00
C2828  C     0.09540   0.54321   0.04390   0.00000  Uiso   1.00
C2929  C     0.08816   0.55207   0.07232   0.00000  Uiso   1.00
C3030  C     0.07194   0.54482   0.07471   0.00000  Uiso   1.00
C3131  C     0.06292   0.52868   0.04876   0.00000  Uiso   1.00
C3232  C     0.07016   0.51984   0.01939   0.00000  Uiso   1.00
C3333  C     0.08637   0.52709   0.01696   0.00000  Uiso   1.00
C3434  C     0.04626   0.52114   0.05543   0.00000  Uiso   1.00
C3535  C     0.03229   0.51467   0.06258   0.00000  Uiso   1.00
N3636  N     0.67448   0.32454   0.20729   0.00000  Uiso   1.00
C3737  C     0.65752   0.33913   0.19883   0.00000  Uiso   1.00
C3838  C     0.64829   0.34712   0.19472   0.00000  Uiso   1.00
C3939  C     0.65523   0.36289   0.14305   0.00000  Uiso   1.00
C4040  C     0.64654   0.37043   0.13927   0.00000  Uiso   1.00
C4141  C     0.63071   0.36242   0.18841   0.00000  Uiso   1.00
C4242  C     0.62379   0.34665   0.24050   0.00000  Uiso   1.00
C4343  C     0.63245   0.33908   0.24296   0.00000  Uiso   1.00
C4444  C     0.62147   0.37047   0.18576   0.00000  Uiso   1.00
C4545  C     0.62825   0.38622   0.23850   0.00000  Uiso   1.00
C4646  C     0.61954   0.39374   0.23652   0.00000  Uiso   1.00
C4747  C     0.59704   0.37000   0.12969   0.00000  Uiso   1.00
C4848  C     0.60577   0.36249   0.13032   0.00000  Uiso   1.00
C4949  C     0.49029   0.48401   0.22343   0.00000  Uiso   1.00
C5050  C     0.50638   0.49055   0.20792   0.00000  Uiso   1.00
C5151  C     0.51594   0.50677   0.19035   0.00000  Uiso   1.00
C5252  C     0.58256   0.41432   0.18658   0.00000  Uiso   1.00
C5353  C     0.57556   0.42354   0.18797   0.00000  Uiso   1.00
C5454  C     0.55936   0.41655   0.18309   0.00000  Uiso   1.00
C5555  C     0.55017   0.40031   0.17668   0.00000  Uiso   1.00
C5656  C     0.55714   0.39107   0.17532   0.00000  Uiso   1.00
C5757  C     0.57339   0.39798   0.18037   0.00000  Uiso   1.00
C5858  C     0.58048   0.38798   0.17922   0.00000  Uiso   1.00
N5959  N     0.59548   0.39406   0.18607   0.00000  Uiso   1.00
C6060  C     0.55218   0.42606   0.18512   0.00000  Uiso   1.00
C6161  C     0.54624   0.43408   0.18713   0.00000  Uiso   1.00
C6262  C     0.53923   0.44374   0.19001   0.00000  Uiso   1.00
C6363  C     0.54845   0.45980   0.21992   0.00000  Uiso   1.00
C6464  C     0.54166   0.46920   0.22367   0.00000  Uiso   1.00
C6565  C     0.52562   0.46257   0.19754   0.00000  Uiso   1.00
C6666  C     0.51638   0.44651   0.16723   0.00000  Uiso   1.00
C6767  C     0.52318   0.43711   0.16352   0.00000  Uiso   1.00
C6868  C     0.51867   0.47228   0.20181   0.00000  Uiso   1.00
C6969  C     0.51299   0.48053   0.20512   0.00000  Uiso   1.00
C7070  C     0.60386   0.38571   0.18475   0.00000  Uiso   1.00
O7171  O     0.46715   0.98592   0.70678   0.00000  Uiso   1.00
C7272  C     0.45862   0.98229   0.87921   0.00000  Uiso   1.00
O7373  O     0.53199   0.51336   0.16495   0.00000  Uiso   1.00
C7474  C     0.54037   0.51692   0.33843   0.00000  Uiso   1.00
N7575  N     0.32528   0.67521   0.23105   0.00000  Uiso   1.00
C7676  C     0.34200   0.66069   0.17580   0.00000  Uiso   1.00
C7777  C     0.34909   0.70036   0.28724   0.00000  Uiso   1.00
C7878  C     0.36525   0.70953   0.26380   0.00000  Uiso   1.00
C7979  C     0.37283   0.72555   0.29729   0.00000  Uiso   1.00
C8080  C     0.36450   0.73281   0.35751   0.00000  Uiso   1.00
C8181  C     0.34835   0.72353   0.38421   0.00000  Uiso   1.00
C8282  C     0.34073   0.70753   0.34820   0.00000  Uiso   1.00
C8383  C     0.37259   0.74995   0.39139   0.00000  Uiso   1.00
C8484  C     0.38803   0.75800   0.45694   0.00000  Uiso   1.00
C8585  C     0.39562   0.77407   0.48661   0.00000  Uiso   1.00
C8686  C     0.38797   0.78246   0.45481   0.00000  Uiso   1.00
C8787  C     0.37259   0.77455   0.38735   0.00000  Uiso   1.00
C8888  C     0.36503   0.75849   0.35569   0.00000  Uiso   1.00
C8989  C     0.48363   0.49349   0.21645   0.00000  Uiso   1.00
C9090  C     0.50932   0.51640   0.18553   0.00000  Uiso   1.00
C9191  C     0.49300   0.50962   0.19489   0.00000  Uiso   1.00
C9292  C     0.41523   0.58418   0.08056   0.00000  Uiso   1.00
C9393  C     0.42202   0.57478   0.08583   0.00000  Uiso   1.00
C9494  C     0.43814   0.58146   0.06833   0.00000  Uiso   1.00
C9595  C     0.44744   0.59758   0.04439   0.00000  Uiso   1.00
C9696  C     0.44068   0.60700   0.03911   0.00000  Uiso   1.00
C9797  C     0.42453   0.60040   0.05786   0.00000  Uiso   1.00
C9898  C     0.41770   0.61063   0.05590   0.00000  Uiso   1.00
N9999  N     0.40283   0.60486   0.07747   0.00000  Uiso   1.00
C100100 C     0.44515   0.57184   0.07804   0.00000  Uiso   1.00
C101101 C     0.45110   0.56385   0.08788   0.00000  Uiso   1.00
C102102 C     0.45831   0.55441   0.10167   0.00000  Uiso   1.00
C103103 C     0.44931   0.53817   0.08695   0.00000  Uiso   1.00
C104104 C     0.45632   0.52901   0.10374   0.00000  Uiso   1.00
C105105 C     0.47234   0.53608   0.13549   0.00000  Uiso   1.00
C106106 C     0.48135   0.55231   0.14933   0.00000  Uiso   1.00
C107107 C     0.47434   0.56147   0.13244   0.00000  Uiso   1.00
C108108 C     0.47954   0.52668   0.15576   0.00000  Uiso   1.00
C109109 C     0.48565   0.51889   0.17353   0.00000  Uiso   1.00
N110110 N     0.67309   0.34727   0.16756   0.00000  Uiso   1.00
C111111 C     0.65893   0.31622   0.23864   0.00000  Uiso   1.00
C112112 C     0.65121   0.29924   0.27442   0.00000  Uiso   1.00
C113113 C     0.63565   0.29094   0.33421   0.00000  Uiso   1.00
C114114 C     0.62831   0.27487   0.36433   0.00000  Uiso   1.00
C115115 C     0.63627   0.26666   0.33309   0.00000  Uiso   1.00
C116116 C     0.65187   0.27503   0.27408   0.00000  Uiso   1.00
C117117 C     0.65926   0.29112   0.24614   0.00000  Uiso   1.00
C118118 C     0.62835   0.24948   0.36107   0.00000  Uiso   1.00
C119119 C     0.61242   0.24001   0.32166   0.00000  Uiso   1.00
C120120 C     0.60502   0.22390   0.34780   0.00000  Uiso   1.00
C121121 C     0.62927   0.22621   0.45128   0.00000  Uiso   1.00
C122122 C     0.63666   0.24234   0.42655   0.00000  Uiso   1.00
C123123 C     0.51556   0.00685   0.76368   0.00000  Uiso   1.00
C124124 C     0.50876   0.01618   0.74310   0.00000  Uiso   1.00
C125125 C     0.49242   0.00919   0.73239   0.00000  Uiso   1.00
C126126 C     0.58494   0.16740   0.49741   0.00000  Uiso   1.00
C127127 C     0.57578   0.15133   0.52520   0.00000  Uiso   1.00
C128128 C     0.58275   0.14217   0.54568   0.00000  Uiso   1.00
C129129 C     0.59894   0.14911   0.53827   0.00000  Uiso   1.00
C130130 C     0.60813   0.16518   0.51055   0.00000  Uiso   1.00
C131131 C     0.60123   0.17446   0.48966   0.00000  Uiso   1.00
C132132 C     0.61117   0.19140   0.46058   0.00000  Uiso   1.00
N133133 N     0.60507   0.20022   0.43724   0.00000  Uiso   1.00
C134134 C     0.57329   0.12564   0.57403   0.00000  Uiso   1.00
C135135 C     0.56528   0.11180   0.59749   0.00000  Uiso   1.00
C136136 C     0.55561   0.09529   0.62504   0.00000  Uiso   1.00
C137137 C     0.53941   0.08850   0.62238   0.00000  Uiso   1.00
C138138 C     0.52998   0.07244   0.64793   0.00000  Uiso   1.00
C139139 C     0.53671   0.06311   0.67636   0.00000  Uiso   1.00
C140140 C     0.55291   0.06989   0.67920   0.00000  Uiso   1.00
C141141 C     0.56235   0.08596   0.65369   0.00000  Uiso   1.00
C142142 C     0.52698   0.04658   0.70136   0.00000  Uiso   1.00
C143143 C     0.51871   0.03274   0.72123   0.00000  Uiso   1.00
C144144 C     0.61335   0.21682   0.41061   0.00000  Uiso   1.00
O145145 O     0.01313   0.48105   0.02572   0.00000  Uiso   1.00
C146146 C     0.02355   0.48149   0.16813   0.00000  Uiso   1.00
O147147 O     0.48509   0.01798   0.70064   0.00000  Uiso   1.00
C148148 C     0.48767   0.02946   0.84034   0.00000  Uiso   1.00
N149149 N     0.32627   0.65260   0.16180   0.00000  Uiso   1.00
C150150 C     0.34101   0.68347   0.24498   0.00000  Uiso   1.00
C151151 C     0.30065   0.65083   0.17377   0.00000  Uiso   1.00
C152152 C     0.29176   0.65786   0.21672   0.00000  Uiso   1.00
C153153 C     0.27558   0.64939   0.20372   0.00000  Uiso   1.00
C154154 C     0.26787   0.63371   0.14606   0.00000  Uiso   1.00
C155155 C     0.27679   0.62672   0.10217   0.00000  Uiso   1.00
C156156 C     0.29297   0.63515   0.11661   0.00000  Uiso   1.00
C157157 C     0.25062   0.62470   0.13148   0.00000  Uiso   1.00
C158158 C     0.24226   0.63198   0.07318   0.00000  Uiso   1.00
C159159 C     0.22607   0.62352   0.06101   0.00000  Uiso   1.00
C160160 C     0.21787   0.60761   0.10345   0.00000  Uiso   1.00
C161161 C     0.22614   0.60028   0.16336   0.00000  Uiso   1.00
C162162 C     0.24233   0.60875   0.17727   0.00000  Uiso   1.00
C163163 C     0.50634   0.99067   0.76772   0.00000  Uiso   1.00
C164164 C     0.48321   0.99287   0.73429   0.00000  Uiso   1.00
C165165 C     0.49021   0.98363   0.75026   0.00000  Uiso   1.00
C166166 C     0.41648   0.83178   0.54989   0.00000  Uiso   1.00
C167167 C     0.42565   0.84782   0.57937   0.00000  Uiso   1.00
C168168 C     0.41866   0.85695   0.60345   0.00000  Uiso   1.00
C169169 C     0.40246   0.84997   0.59831   0.00000  Uiso   1.00
C170170 C     0.39327   0.83393   0.56886   0.00000  Uiso   1.00
C171171 C     0.40019   0.82469   0.54398   0.00000  Uiso   1.00
C172172 C     0.39025   0.80781   0.51139   0.00000  Uiso   1.00
N173173 N     0.39633   0.79896   0.48915   0.00000  Uiso   1.00
C174174 C     0.42810   0.87348   0.63141   0.00000  Uiso   1.00
C175175 C     0.43599   0.88735   0.65347   0.00000  Uiso   1.00
C176176 C     0.44537   0.90393   0.67794   0.00000  Uiso   1.00
C177177 C     0.46144   0.91079   0.70497   0.00000  Uiso   1.00
C178178 C     0.47059   0.92696   0.72428   0.00000  Uiso   1.00
C179179 C     0.46371   0.93630   0.71681   0.00000  Uiso   1.00
C180180 C     0.44764   0.92942   0.69098   0.00000  Uiso   1.00
C181181 C     0.43848   0.91327   0.67159   0.00000  Uiso   1.00
C182182 C     0.47314   0.95294   0.73163   0.00000  Uiso   1.00
C183183 C     0.48097   0.96691   0.74157   0.00000  Uiso   1.00
N184184 N     0.65053   0.32360   0.23452   0.00000  Uiso   1.00
C185185 C     0.68165   0.34007   0.17184   0.00000  Uiso   1.00
C186186 C     0.69867   0.34908   0.14180   0.00000  Uiso   1.00
C187187 C     0.70789   0.34227   0.17602   0.00000  Uiso   1.00
C188188 C     0.72400   0.35094   0.15497   0.00000  Uiso   1.00
C189189 C     0.73131   0.36660   0.09713   0.00000  Uiso   1.00
C190190 C     0.72202   0.37331   0.05929   0.00000  Uiso   1.00
C191191 C     0.70592   0.36469   0.08246   0.00000  Uiso   1.00
C192192 C     0.74852   0.37595   0.07896   0.00000  Uiso   1.00
C193193 C     0.75713   0.36898   0.01917   0.00000  Uiso   1.00
C194194 C     0.77330   0.37772   0.00617   0.00000  Uiso   1.00
C195195 C     0.77271   0.40065   0.11047   0.00000  Uiso   1.00
C196196 C     0.75654   0.39190   0.12506   0.00000  Uiso   1.00
C197197 C     0.99224   0.50871   0.09016   0.00000  Uiso   1.00
C198198 C     0.98307   0.49257   0.06998   0.00000  Uiso   1.00
C199199 C     0.99017   0.48332   0.05598   0.00000  Uiso   1.00
C200200 C     0.83103   0.41522   0.02770   0.00000  Uiso   1.00
C201201 C     0.84723   0.42238   0.02508   0.00000  Uiso   1.00
C202202 C     0.85632   0.43861   0.01389   0.00000  Uiso   1.00
C203203 C     0.84916   0.44768   0.00423   0.00000  Uiso   1.00
C204204 C     0.83297   0.44055   0.00686   0.00000  Uiso   1.00
C205205 C     0.82376   0.42427   0.01926   0.00000  Uiso   1.00
C206206 C     0.80669   0.41703   0.02597   0.00000  Uiso   1.00
N207207 N     0.79789   0.40200   0.03640   0.00000  Uiso   1.00
C208208 C     0.87298   0.44595   0.01525   0.00000  Uiso   1.00
C209209 C     0.88693   0.45203   0.01789   0.00000  Uiso   1.00
C210210 C     0.90357   0.45918   0.02261   0.00000  Uiso   1.00
C211211 C     0.91058   0.45006  -0.00130   0.00000  Uiso   1.00
C212212 C     0.92675   0.45696   0.00590   0.00000  Uiso   1.00
C213213 C     0.93597   0.47300   0.03710   0.00000  Uiso   1.00
C214214 C     0.92897   0.48214   0.06047   0.00000  Uiso   1.00
C215215 C     0.91280   0.47524   0.05323   0.00000  Uiso   1.00
C216216 C     0.95257   0.48003   0.04729   0.00000  Uiso   1.00
C217217 C     0.96648   0.48578   0.05700   0.00000  Uiso   1.00
C218218 C     0.78123   0.39362   0.04946   0.00000  Uiso   1.00
O219219 O     0.51914   0.53242   0.15371   0.00000  Uiso   1.00
C220220 C     0.51884   0.54260   0.29470   0.00000  Uiso   1.00
O221221 O     0.98145   0.46717   0.02492   0.00000  Uiso   1.00
C222222 C     0.97051   0.45823   0.16920   0.00000  Uiso   1.00
N223223 N     0.35002   0.67615   0.71647   0.00000  Uiso   1.00
C224224 C     0.31855   0.65969   0.68825   0.00000  Uiso   1.00
C225225 C     0.35192   0.65274   0.64968   0.00000  Uiso   1.00
C226226 C     0.34465   0.63710   0.59174   0.00000  Uiso   1.00
C227227 C     0.35320   0.62949   0.57219   0.00000  Uiso   1.00
C228228 C     0.36921   0.63729   0.61175   0.00000  Uiso   1.00
C229229 C     0.37648   0.65298   0.66826   0.00000  Uiso   1.00
C230230 C     0.36796   0.66063   0.68628   0.00000  Uiso   1.00
C231231 C     0.37824   0.62905   0.59677   0.00000  Uiso   1.00
C232232 C     0.37146   0.61323   0.64580   0.00000  Uiso   1.00
C233233 C     0.38005   0.60560   0.63576   0.00000  Uiso   1.00
C234234 C     0.39562   0.61358   0.57919   0.00000  Uiso   1.00
C235235 C     0.40242   0.62937   0.52719   0.00000  Uiso   1.00
C236236 C     0.39380   0.63698   0.53597   0.00000  Uiso   1.00
C237237 C     0.00958   0.51825   0.55923   0.00000  Uiso   1.00
C238238 C     0.00762   0.49287   0.59080   0.00000  Uiso   1.00
C239239 C     0.01676   0.50906   0.57361   0.00000  Uiso   1.00
C240240 C     0.16887   0.58593   0.57585   0.00000  Uiso   1.00
C241241 C     0.15269   0.57889   0.56802   0.00000  Uiso   1.00
C242242 C     0.14354   0.56270   0.55160   0.00000  Uiso   1.00
C243243 C     0.15061   0.55355   0.54234   0.00000  Uiso   1.00
C244244 C     0.16679   0.56057   0.55018   0.00000  Uiso   1.00
C245245 C     0.17606   0.57681   0.56742   0.00000  Uiso   1.00
C246246 C     0.19310   0.58393   0.57799   0.00000  Uiso   1.00
N247247 N     0.20198   0.59894   0.59137   0.00000  Uiso   1.00
C248248 C     0.12689   0.55547   0.54669   0.00000  Uiso   1.00
C249249 C     0.11294   0.54949   0.54406   0.00000  Uiso   1.00
C250250 C     0.09631   0.54247   0.54287   0.00000  Uiso   1.00
C251251 C     0.08948   0.55170   0.57167   0.00000  Uiso   1.00
C252252 C     0.07331   0.54487   0.57458   0.00000  Uiso   1.00
C253253 C     0.06391   0.52877   0.54857   0.00000  Uiso   1.00
C254254 C     0.07073   0.51954   0.51858   0.00000  Uiso   1.00
C255255 C     0.08691   0.52638   0.51580   0.00000  Uiso   1.00
C256256 C     0.04729   0.52174   0.55565   0.00000  Uiso   1.00
C257257 C     0.03338   0.51594   0.56322   0.00000  Uiso   1.00
N258258 N     0.67524   0.32450   0.70665   0.00000  Uiso   1.00
C259259 C     0.65836   0.33919   0.69776   0.00000  Uiso   1.00
C260260 C     0.64915   0.34719   0.69357   0.00000  Uiso   1.00
C261261 C     0.65610   0.36296   0.64164   0.00000  Uiso   1.00
C262262 C     0.64741   0.37050   0.63809   0.00000  Uiso   1.00
C263263 C     0.63160   0.36251   0.68805   0.00000  Uiso   1.00
C264264 C     0.62467   0.34674   0.74015   0.00000  Uiso   1.00
C265265 C     0.63332   0.33916   0.74210   0.00000  Uiso   1.00
C266266 C     0.62238   0.37059   0.68655   0.00000  Uiso   1.00
C267267 C     0.62922   0.38634   0.73950   0.00000  Uiso   1.00
C268268 C     0.62055   0.39390   0.73803   0.00000  Uiso   1.00
C269269 C     0.59799   0.37019   0.63152   0.00000  Uiso   1.00
C270270 C     0.60667   0.36264   0.63187   0.00000  Uiso   1.00
C271271 C     0.48863   0.48152   0.69127   0.00000  Uiso   1.00
C272272 C     0.50493   0.48854   0.70900   0.00000  Uiso   1.00
C273273 C     0.51407   0.50472   0.72466   0.00000  Uiso   1.00
C274274 C     0.58382   0.41473   0.68701   0.00000  Uiso   1.00
C275275 C     0.57690   0.42402   0.68837   0.00000  Uiso   1.00
C276276 C     0.56071   0.41711   0.68345   0.00000  Uiso   1.00
C277277 C     0.55144   0.40088   0.67690   0.00000  Uiso   1.00
C278278 C     0.55834   0.39157   0.67556   0.00000  Uiso   1.00
C279279 C     0.57457   0.39840   0.68077   0.00000  Uiso   1.00
C280280 C     0.58157   0.38832   0.67987   0.00000  Uiso   1.00
N281281 N     0.59656   0.39433   0.68740   0.00000  Uiso   1.00
C282282 C     0.55359   0.42667   0.68563   0.00000  Uiso   1.00
C283283 C     0.54758   0.43462   0.68771   0.00000  Uiso   1.00
C284284 C     0.54032   0.44405   0.69037   0.00000  Uiso   1.00
C285285 C     0.54929   0.46015   0.71960   0.00000  Uiso   1.00
C286286 C     0.54220   0.46929   0.72248   0.00000  Uiso   1.00
C287287 C     0.52613   0.46235   0.69610   0.00000  Uiso   1.00
C288288 C     0.51717   0.44625   0.66685   0.00000  Uiso   1.00
C289289 C     0.52425   0.43711   0.66400   0.00000  Uiso   1.00
C290290 C     0.51880   0.47170   0.69985   0.00000  Uiso   1.00
C291291 C     0.51253   0.47941   0.70360   0.00000  Uiso   1.00
C292292 C     0.60486   0.38592   0.68637   0.00000  Uiso   1.00
N293293 N     0.32597   0.67513   0.72992   0.00000  Uiso   1.00
C294294 C     0.34278   0.66070   0.67545   0.00000  Uiso   1.00
C295295 C     0.34968   0.70033   0.78617   0.00000  Uiso   1.00
C296296 C     0.36582   0.70961   0.76316   0.00000  Uiso   1.00
C297297 C     0.37329   0.72563   0.79690   0.00000  Uiso   1.00
C298298 C     0.36483   0.73276   0.85687   0.00000  Uiso   1.00
C299299 C     0.34869   0.72337   0.88302   0.00000  Uiso   1.00
C300300 C     0.34120   0.70739   0.84678   0.00000  Uiso   1.00
C301301 C     0.37276   0.74989   0.89108   0.00000  Uiso   1.00
C302302 C     0.38818   0.75806   0.95726   0.00000  Uiso   1.00
C303303 C     0.39563   0.77413   0.98703   0.00000  Uiso   1.00
C304304 C     0.38784   0.78239   0.95478   0.00000  Uiso   1.00
C305305 C     0.37249   0.77436   0.88677   0.00000  Uiso   1.00
C306306 C     0.36507   0.75830   0.85501   0.00000  Uiso   1.00
C307307 C     0.48175   0.49092   0.68446   0.00000  Uiso   1.00
C308308 C     0.50725   0.51404   0.71709   0.00000  Uiso   1.00
C309309 C     0.49119   0.50729   0.69453   0.00000  Uiso   1.00
C310310 C     0.41648   0.58460   0.57976   0.00000  Uiso   1.00
C311311 C     0.42335   0.57527   0.58541   0.00000  Uiso   1.00
C312312 C     0.43947   0.58202   0.56824   0.00000  Uiso   1.00
C313313 C     0.44871   0.59814   0.54412   0.00000  Uiso   1.00
C314314 C     0.44187   0.60750   0.53844   0.00000  Uiso   1.00
C315315 C     0.42572   0.60083   0.55694   0.00000  Uiso   1.00
C316316 C     0.41879   0.61099   0.55464   0.00000  Uiso   1.00
N317317 N     0.40391   0.60515   0.57567   0.00000  Uiso   1.00
C318318 C     0.44653   0.57243   0.57842   0.00000  Uiso   1.00
C319319 C     0.45237   0.56433   0.58858   0.00000  Uiso   1.00
C320320 C     0.45923   0.55458   0.60245   0.00000  Uiso   1.00
C321321 C     0.44987   0.53838   0.58791   0.00000  Uiso   1.00
C322322 C     0.45648   0.52886   0.60450   0.00000  Uiso   1.00
C323323 C     0.47247   0.53551   0.63574   0.00000  Uiso   1.00
C324324 C     0.48185   0.55172   0.64941   0.00000  Uiso   1.00
C325325 C     0.47524   0.56124   0.63288   0.00000  Uiso   1.00
C326326 C     0.47919   0.52568   0.65579   0.00000  Uiso   1.00
C327327 C     0.48469   0.51734   0.67330   0.00000  Uiso   1.00
N328328 N     0.67393   0.34730   0.66688   0.00000  Uiso   1.00
C329329 C     0.65967   0.31623   0.73762   0.00000  Uiso   1.00
C330330 C     0.65183   0.29925   0.77347   0.00000  Uiso   1.00
C331331 C     0.63626   0.29109   0.83290   0.00000  Uiso   1.00
C332332 C     0.62877   0.27502   0.86328   0.00000  Uiso   1.00
C333333 C     0.63658   0.26667   0.83260   0.00000  Uiso   1.00
C334334 C     0.65220   0.27489   0.77400   0.00000  Uiso   1.00
C335335 C     0.65975   0.29099   0.74575   0.00000  Uiso   1.00
C336336 C     0.62847   0.24947   0.86066   0.00000  Uiso   1.00
C337337 C     0.61253   0.24018   0.82069   0.00000  Uiso   1.00
C338338 C     0.60494   0.22406   0.84681   0.00000  Uiso   1.00
C339339 C     0.62901   0.22602   0.95138   0.00000  Uiso   1.00
C340340 C     0.63659   0.24216   0.92673   0.00000  Uiso   1.00
C341341 C     0.51698   0.00621   1.23235   0.00000  Uiso   1.00
C342342 C     0.51018   0.01577   1.24308   0.00000  Uiso   1.00
C343343 C     0.49408   0.00898   1.26363   0.00000  Uiso   1.00
C344344 C     0.58408   0.16743   0.99716   0.00000  Uiso   1.00
C345345 C     0.57473   0.15138   1.02487   0.00000  Uiso   1.00
C346346 C     0.58152   0.14205   1.04566   0.00000  Uiso   1.00
C347347 C     0.59769   0.14880   1.03861   0.00000  Uiso   1.00
C348348 C     0.60706   0.16485   1.01091   0.00000  Uiso   1.00
C349349 C     0.60035   0.17430   0.98974   0.00000  Uiso   1.00
C350350 C     0.61049   0.19121   0.96071   0.00000  Uiso   1.00
N351351 N     0.60459   0.20020   0.93685   0.00000  Uiso   1.00
C352352 C     0.57192   0.12554   1.07394   0.00000  Uiso   1.00
C353353 C     0.56396   0.11169   1.09735   0.00000  Uiso   1.00
C354354 C     0.55459   0.09514   1.12495   0.00000  Uiso   1.00
C355355 C     0.53835   0.08795   1.12196   0.00000  Uiso   1.00
C356356 C     0.52927   0.07184   1.14757   0.00000  Uiso   1.00
C357357 C     0.53640   0.06289   1.17650   0.00000  Uiso   1.00
C358358 C     0.55263   0.07008   1.17968   0.00000  Uiso   1.00
C359359 C     0.56171   0.08618   1.15398   0.00000  Uiso   1.00
C360360 C     0.52710   0.04632   1.20141   0.00000  Uiso   1.00
C361361 C     0.51938   0.03241   1.22124   0.00000  Uiso   1.00
C362362 C     0.61307   0.21679   0.91016   0.00000  Uiso   1.00
N363363 N     0.32705   0.65256   0.66131   0.00000  Uiso   1.00
C364364 C     0.34170   0.68345   0.74397   0.00000  Uiso   1.00
C365365 C     0.30140   0.65073   0.67278   0.00000  Uiso   1.00
C366366 C     0.29248   0.65774   0.71591   0.00000  Uiso   1.00
C367367 C     0.27630   0.64924   0.70346   0.00000  Uiso   1.00
C368368 C     0.26861   0.63355   0.64607   0.00000  Uiso   1.00
C369369 C     0.27756   0.62661   0.60136   0.00000  Uiso   1.00
C370370 C     0.29374   0.63506   0.61545   0.00000  Uiso   1.00
C371371 C     0.25136   0.62447   0.63312   0.00000  Uiso   1.00
C372372 C     0.24290   0.63166   0.57564   0.00000  Uiso   1.00
C373373 C     0.22671   0.62310   0.56384   0.00000  Uiso   1.00
C374374 C     0.21862   0.60718   0.60611   0.00000  Uiso   1.00
C375375 C     0.22700   0.59996   0.66613   0.00000  Uiso   1.00
C376376 C     0.24318   0.60854   0.67944   0.00000  Uiso   1.00
C377377 C     0.50738   0.98994   1.23431   0.00000  Uiso   1.00
C378378 C     0.48464   0.99282   1.26771   0.00000  Uiso   1.00
C379379 C     0.49118   0.98327   1.25024   0.00000  Uiso   1.00
C380380 C     0.41591   0.83174   1.05007   0.00000  Uiso   1.00
C381381 C     0.42494   0.84779   1.07951   0.00000  Uiso   1.00
C382382 C     0.41781   0.85679   1.10325   0.00000  Uiso   1.00
C383383 C     0.40160   0.84967   1.09791   0.00000  Uiso   1.00
C384384 C     0.39255   0.83361   1.06855   0.00000  Uiso   1.00
C385385 C     0.39961   0.82451   1.04392   0.00000  Uiso   1.00
C386386 C     0.38982   0.80760   1.01127   0.00000  Uiso   1.00
N387387 N     0.39605   0.79888   0.98925   0.00000  Uiso   1.00
C388388 C     0.42714   0.87333   1.13104   0.00000  Uiso   1.00
C389389 C     0.43504   0.88720   1.15297   0.00000  Uiso   1.00
C390390 C     0.44456   0.90377   1.17738   0.00000  Uiso   1.00
C391391 C     0.46060   0.91042   1.20505   0.00000  Uiso   1.00
C392392 C     0.46993   0.92656   1.22456   0.00000  Uiso   1.00
C393393 C     0.46327   0.93609   1.21649   0.00000  Uiso   1.00
C394394 C     0.44723   0.92944   1.18987   0.00000  Uiso   1.00
C395395 C     0.43789   0.91329   1.17044   0.00000  Uiso   1.00
C396396 C     0.47296   0.95271   1.23138   0.00000  Uiso   1.00
C397397 C     0.48120   0.96663   1.24144   0.00000  Uiso   1.00
N398398 N     0.65133   0.32367   0.73328   0.00000  Uiso   1.00
C399399 C     0.68246   0.34005   0.67139   0.00000  Uiso   1.00
C400400 C     0.69948   0.34905   0.64178   0.00000  Uiso   1.00
C401401 C     0.70869   0.34222   0.67583   0.00000  Uiso   1.00
C402402 C     0.72480   0.35087   0.65445   0.00000  Uiso   1.00
C403403 C     0.73212   0.36654   0.59665   0.00000  Uiso   1.00
C404404 C     0.72286   0.37328   0.55957   0.00000  Uiso   1.00
C405405 C     0.70675   0.36467   0.58285   0.00000  Uiso   1.00
C406406 C     0.74933   0.37585   0.57727   0.00000  Uiso   1.00
C407407 C     0.75787   0.36883   0.51665   0.00000  Uiso   1.00
C408408 C     0.77405   0.37750   0.50346   0.00000  Uiso   1.00
C409409 C     0.77361   0.40050   0.60813   0.00000  Uiso   1.00
C410410 C     0.75743   0.39180   0.62314   0.00000  Uiso   1.00
C411411 C     0.99329   0.51093   0.55574   0.00000  Uiso   1.00
C412412 C     0.98425   0.49463   0.56894   0.00000  Uiso   1.00
C413413 C     0.99146   0.48569   0.58845   0.00000  Uiso   1.00
C414414 C     0.83187   0.41469   0.52767   0.00000  Uiso   1.00
C415415 C     0.84807   0.42175   0.52510   0.00000  Uiso   1.00
C416416 C     0.85725   0.43797   0.51400   0.00000  Uiso   1.00
C417417 C     0.85018   0.44713   0.50453   0.00000  Uiso   1.00
C418418 C     0.83399   0.44010   0.50712   0.00000  Uiso   1.00
C419419 C     0.82469   0.42383   0.51927   0.00000  Uiso   1.00
C420420 C     0.80763   0.41670   0.52561   0.00000  Uiso   1.00
N421421 N     0.79872   0.40167   0.53461   0.00000  Uiso   1.00
C422422 C     0.87391   0.44525   0.51516   0.00000  Uiso   1.00
C423423 C     0.88787   0.45141   0.51767   0.00000  Uiso   1.00
C424424 C     0.90454   0.45883   0.52252   0.00000  Uiso   1.00
C425425 C     0.91186   0.44999   0.49847   0.00000  Uiso   1.00
C426426 C     0.92806   0.45720   0.50646   0.00000  Uiso   1.00
C427427 C     0.93699   0.47327   0.53866   0.00000  Uiso   1.00
C428428 C     0.92967   0.48211   0.56180   0.00000  Uiso   1.00
C429429 C     0.91348   0.47491   0.55377   0.00000  Uiso   1.00
C430430 C     0.95362   0.48068   0.54931   0.00000  Uiso   1.00
C431431 C     0.96757   0.48698   0.55853   0.00000  Uiso   1.00
C432432 C     0.78206   0.39339   0.54708   0.00000  Uiso   1.00
O433433 O     0.46568   0.48367   0.65120   0.00000  Uiso   1.00
C434434 C     0.45678   0.48628   0.79024   0.00000  Uiso   1.00
O435435 O     0.47908   0.46541   0.66329   0.00000  Uiso   1.00
C436436 C     0.47921   0.45556   0.81017   0.00000  Uiso   1.00
O437437 O     1.01820   0.53443   0.53006   0.00000  Uiso   1.00
C438438 C     1.02906   0.54333   0.67513   0.00000  Uiso   1.00
O439439 O     0.98618   0.51991   0.52699   0.00000  Uiso   1.00
C440440 C     0.98221   0.52459   0.69878   0.00000  Uiso   1.00
O441441 O     0.53295   1.01240   1.20025   0.00000  Uiso   1.00
C442442 C     0.54317   1.02307   1.33942   0.00000  Uiso   1.00
O443443 O     0.51396   0.98046   1.20709   0.00000  Uiso   1.00
C444444 C     0.51759   0.97557   1.37970   0.00000  Uiso   1.00
H445445 H     0.33152   0.63072   0.05967   0.00000  Uiso   1.00
H446446 H     0.34643   0.61750   0.02330   0.00000  Uiso   1.00
H447447 H     0.38788   0.65919   0.20451   0.00000  Uiso   1.00
H448448 H     0.37313   0.67260   0.23299   0.00000  Uiso   1.00
H449449 H     0.35865   0.60672   0.19778   0.00000  Uiso   1.00
H450450 H     0.37357   0.59329   0.17785   0.00000  Uiso   1.00
H451451 H     0.41332   0.63565  -0.02068   0.00000  Uiso   1.00
H452452 H     0.39848   0.64891  -0.00558   0.00000  Uiso   1.00
H453453 H     0.01527   0.52834   0.10547   0.00000  Uiso   1.00
H454454 H     0.17508   0.59937   0.08925   0.00000  Uiso   1.00
H455455 H     0.14670   0.58723   0.07606   0.00000  Uiso   1.00
H456456 H     0.14250   0.54194   0.03050   0.00000  Uiso   1.00
H457457 H     0.17091   0.55398   0.04365   0.00000  Uiso   1.00
H458458 H     0.19699   0.57684   0.07089   0.00000  Uiso   1.00
H459459 H     0.09503   0.56454   0.09383   0.00000  Uiso   1.00
H460460 H     0.06644   0.55175   0.09808   0.00000  Uiso   1.00
H461461 H     0.06329   0.50735  -0.00090   0.00000  Uiso   1.00
H462462 H     0.09186   0.52013  -0.00516   0.00000  Uiso   1.00
H463463 H     0.66737   0.36941   0.10343   0.00000  Uiso   1.00
H464464 H     0.65218   0.38248   0.09444   0.00000  Uiso   1.00
H465465 H     0.61172   0.34019   0.28304   0.00000  Uiso   1.00
H466466 H     0.62676   0.32696   0.28501   0.00000  Uiso   1.00
H467467 H     0.64021   0.39268   0.28507   0.00000  Uiso   1.00
H468468 H     0.62497   0.40585   0.27861   0.00000  Uiso   1.00
H469469 H     0.58514   0.36351   0.08172   0.00000  Uiso   1.00
H470470 H     0.60030   0.35050   0.08334   0.00000  Uiso   1.00
H471471 H     0.48284   0.47154   0.23914   0.00000  Uiso   1.00
H472472 H     0.59511   0.41999   0.19056   0.00000  Uiso   1.00
H473473 H     0.58277   0.43610   0.19302   0.00000  Uiso   1.00
H474474 H     0.53762   0.39479   0.17283   0.00000  Uiso   1.00
H475475 H     0.54985   0.37852   0.17038   0.00000  Uiso   1.00
H476476 H     0.57288   0.37549   0.17684   0.00000  Uiso   1.00
H477477 H     0.56087   0.46504   0.24082   0.00000  Uiso   1.00
H478478 H     0.54889   0.48161   0.24739   0.00000  Uiso   1.00
H479479 H     0.50397   0.44129   0.14636   0.00000  Uiso   1.00
H480480 H     0.51595   0.42470   0.13995   0.00000  Uiso   1.00
H481481 H     0.46031   0.97379   0.96330   0.00000  Uiso   1.00
H482482 H     0.44608   0.97697   0.84600   0.00000  Uiso   1.00
H483483 H     0.46222   0.99305   0.96326   0.00000  Uiso   1.00
H484484 H     0.55294   0.52224   0.30676   0.00000  Uiso   1.00
H485485 H     0.53674   0.50617   0.42237   0.00000  Uiso   1.00
H486486 H     0.53858   0.52540   0.42202   0.00000  Uiso   1.00
H487487 H     0.37202   0.70440   0.21535   0.00000  Uiso   1.00
H488488 H     0.38520   0.73227   0.27133   0.00000  Uiso   1.00
H489489 H     0.34158   0.72856   0.43556   0.00000  Uiso   1.00
H490490 H     0.32830   0.70076   0.36999   0.00000  Uiso   1.00
H491491 H     0.39421   0.75188   0.48895   0.00000  Uiso   1.00
H492492 H     0.40747   0.78000   0.53799   0.00000  Uiso   1.00
H493493 H     0.36648   0.78070   0.35373   0.00000  Uiso   1.00
H494494 H     0.35337   0.75286   0.29862   0.00000  Uiso   1.00
H495495 H     0.47112   0.48819   0.22604   0.00000  Uiso   1.00
H496496 H     0.40275   0.57876   0.09553   0.00000  Uiso   1.00
H497497 H     0.41473   0.56232   0.10482   0.00000  Uiso   1.00
H498498 H     0.45993   0.60286   0.03070   0.00000  Uiso   1.00
H499499 H     0.44806   0.61945   0.02127   0.00000  Uiso   1.00
H500500 H     0.42543   0.62303   0.04144   0.00000  Uiso   1.00
H501501 H     0.43690   0.53261   0.06307   0.00000  Uiso   1.00
H502502 H     0.44927   0.51646   0.09257   0.00000  Uiso   1.00
H503503 H     0.49374   0.55789   0.17422   0.00000  Uiso   1.00
H504504 H     0.48139   0.57401   0.14448   0.00000  Uiso   1.00
H505505 H     0.62917   0.29687   0.35952   0.00000  Uiso   1.00
H506506 H     0.61644   0.26894   0.41475   0.00000  Uiso   1.00
H507507 H     0.65832   0.26914   0.24500   0.00000  Uiso   1.00
H508508 H     0.67121   0.29713   0.19853   0.00000  Uiso   1.00
H509509 H     0.60568   0.24498   0.26708   0.00000  Uiso   1.00
H510510 H     0.59275   0.21684   0.31647   0.00000  Uiso   1.00
H511511 H     0.63604   0.22132   0.50679   0.00000  Uiso   1.00
H512512 H     0.64882   0.24924   0.46331   0.00000  Uiso   1.00
H513513 H     0.52806   0.01209   0.77382   0.00000  Uiso   1.00
H514514 H     0.57928   0.17425   0.48196   0.00000  Uiso   1.00
H515515 H     0.56325   0.14606   0.53071   0.00000  Uiso   1.00
H516516 H     0.60445   0.14212   0.55407   0.00000  Uiso   1.00
H517517 H     0.62064   0.17036   0.50528   0.00000  Uiso   1.00
H518518 H     0.62361   0.19621   0.45564   0.00000  Uiso   1.00
H519519 H     0.53409   0.09560   0.60004   0.00000  Uiso   1.00
H520520 H     0.51747   0.06730   0.64509   0.00000  Uiso   1.00
H521521 H     0.55822   0.06277   0.70098   0.00000  Uiso   1.00
H522522 H     0.57486   0.09111   0.65598   0.00000  Uiso   1.00
H523523 H     0.03519   0.48572   0.10462   0.00000  Uiso   1.00
H524524 H     0.01922   0.46951   0.22230   0.00000  Uiso   1.00
H525525 H     0.02470   0.48907   0.28982   0.00000  Uiso   1.00
H526526 H     0.49350   0.04115   0.77355   0.00000  Uiso   1.00
H527527 H     0.49485   0.02952   0.96103   0.00000  Uiso   1.00
H528528 H     0.47629   0.02711   0.89684   0.00000  Uiso   1.00
H529529 H     0.29728   0.66987   0.26276   0.00000  Uiso   1.00
H530530 H     0.26910   0.65509   0.24246   0.00000  Uiso   1.00
H531531 H     0.27130   0.61479   0.05313   0.00000  Uiso   1.00
H532532 H     0.29946   0.62940   0.08081   0.00000  Uiso   1.00
H533533 H     0.24822   0.64415   0.03372   0.00000  Uiso   1.00
H534534 H     0.21987   0.62934   0.01542   0.00000  Uiso   1.00
H535535 H     0.22021   0.58817   0.20479   0.00000  Uiso   1.00
H536536 H     0.24832   0.60287   0.22840   0.00000  Uiso   1.00
H537537 H     0.51181   0.98363   0.78200   0.00000  Uiso   1.00
H538538 H     0.42214   0.82496   0.53111   0.00000  Uiso   1.00
H539539 H     0.43818   0.85312   0.58285   0.00000  Uiso   1.00
H540540 H     0.39694   0.85694   0.61672   0.00000  Uiso   1.00
H541541 H     0.38075   0.82873   0.56496   0.00000  Uiso   1.00
H542542 H     0.37778   0.80292   0.51059   0.00000  Uiso   1.00
H543543 H     0.46688   0.90367   0.70992   0.00000  Uiso   1.00
H544544 H     0.48302   0.93217   0.74393   0.00000  Uiso   1.00
H545545 H     0.44221   0.93656   0.68450   0.00000  Uiso   1.00
H546546 H     0.42608   0.90807   0.65029   0.00000  Uiso   1.00
H547547 H     0.70270   0.33031   0.22339   0.00000  Uiso   1.00
H548548 H     0.73075   0.34544   0.18906   0.00000  Uiso   1.00
H549549 H     0.72717   0.38521   0.00978   0.00000  Uiso   1.00
H550550 H     0.69914   0.37025   0.05267   0.00000  Uiso   1.00
H551551 H     0.75138   0.35681  -0.02029   0.00000  Uiso   1.00
H552552 H     0.77970   0.37213  -0.04013   0.00000  Uiso   1.00
H553553 H     0.77844   0.41275   0.15269   0.00000  Uiso   1.00
H554554 H     0.75038   0.39755   0.17773   0.00000  Uiso   1.00
H555555 H     0.98689   0.51588   0.10322   0.00000  Uiso   1.00
H556556 H     0.82424   0.40265   0.03756   0.00000  Uiso   1.00
H557557 H     0.85266   0.41526   0.03291   0.00000  Uiso   1.00
H558558 H     0.85610   0.46025  -0.00438   0.00000  Uiso   1.00
H559559 H     0.82762   0.44775   0.00020   0.00000  Uiso   1.00
H560560 H     0.80168   0.42452   0.01952   0.00000  Uiso   1.00
H561561 H     0.90355   0.43763  -0.02509   0.00000  Uiso   1.00
H562562 H     0.93205   0.44979  -0.01242   0.00000  Uiso   1.00
H563563 H     0.93601   0.49456   0.08518   0.00000  Uiso   1.00
H564564 H     0.90749   0.48239   0.07242   0.00000  Uiso   1.00
H565565 H     0.51106   0.53631   0.41548   0.00000  Uiso   1.00
H566566 H     0.51498   0.55027   0.22920   0.00000  Uiso   1.00
H567567 H     0.53076   0.55000   0.35079   0.00000  Uiso   1.00
H568568 H     0.97319   0.44930   0.22211   0.00000  Uiso   1.00
H569569 H     0.95865   0.45222   0.10797   0.00000  Uiso   1.00
H570570 H     0.97073   0.46537   0.29146   0.00000  Uiso   1.00
H571571 H     0.33234   0.63071   0.56043   0.00000  Uiso   1.00
H572572 H     0.34727   0.61752   0.52387   0.00000  Uiso   1.00
H573573 H     0.38872   0.65930   0.70335   0.00000  Uiso   1.00
H574574 H     0.37392   0.67265   0.73251   0.00000  Uiso   1.00
H575575 H     0.35961   0.60679   0.69666   0.00000  Uiso   1.00
H576576 H     0.37463   0.59345   0.67601   0.00000  Uiso   1.00
H577577 H     0.41424   0.63588   0.47663   0.00000  Uiso   1.00
H578578 H     0.39929   0.64904   0.49199   0.00000  Uiso   1.00
H579579 H     0.01300   0.48574   0.60442   0.00000  Uiso   1.00
H580580 H     0.17571   0.59848   0.58939   0.00000  Uiso   1.00
H581581 H     0.14732   0.58607   0.57563   0.00000  Uiso   1.00
H582582 H     0.14362   0.54100   0.52969   0.00000  Uiso   1.00
H583583 H     0.17207   0.55331   0.54337   0.00000  Uiso   1.00
H584584 H     0.19804   0.57638   0.57058   0.00000  Uiso   1.00
H585585 H     0.09665   0.56415   0.59326   0.00000  Uiso   1.00
H586586 H     0.06816   0.55210   0.59843   0.00000  Uiso   1.00
H587587 H     0.06355   0.50709   0.49818   0.00000  Uiso   1.00
H588588 H     0.09208   0.51914   0.49332   0.00000  Uiso   1.00
H589589 H     0.66823   0.36946   0.60166   0.00000  Uiso   1.00
H590590 H     0.65305   0.38254   0.59309   0.00000  Uiso   1.00
H591591 H     0.61261   0.34030   0.78326   0.00000  Uiso   1.00
H592592 H     0.62762   0.32704   0.78430   0.00000  Uiso   1.00
H593593 H     0.64119   0.39277   0.78565   0.00000  Uiso   1.00
H594594 H     0.62602   0.40601   0.78008   0.00000  Uiso   1.00
H595595 H     0.58608   0.36373   0.58385   0.00000  Uiso   1.00
H596596 H     0.60115   0.35065   0.58499   0.00000  Uiso   1.00
H597597 H     0.52655   0.51019   0.74050   0.00000  Uiso   1.00
H598598 H     0.59636   0.42033   0.69108   0.00000  Uiso   1.00
H599599 H     0.58417   0.43658   0.69351   0.00000  Uiso   1.00
H600600 H     0.53890   0.39542   0.67300   0.00000  Uiso   1.00
H601601 H     0.55099   0.37902   0.67058   0.00000  Uiso   1.00
H602602 H     0.57392   0.37584   0.67715   0.00000  Uiso   1.00
H603603 H     0.56173   0.46562   0.74048   0.00000  Uiso   1.00
H604604 H     0.54923   0.48173   0.74561   0.00000  Uiso   1.00
H605605 H     0.50473   0.44077   0.64609   0.00000  Uiso   1.00
H606606 H     0.51722   0.42467   0.64107   0.00000  Uiso   1.00
H607607 H     0.37269   0.70457   0.71498   0.00000  Uiso   1.00
H608608 H     0.38566   0.73244   0.77148   0.00000  Uiso   1.00
H609609 H     0.34182   0.72830   0.93418   0.00000  Uiso   1.00
H610610 H     0.32876   0.70053   0.86823   0.00000  Uiso   1.00
H611611 H     0.39445   0.75204   0.98962   0.00000  Uiso   1.00
H612612 H     0.40746   0.78016   1.03885   0.00000  Uiso   1.00
H613613 H     0.36628   0.78040   0.85278   0.00000  Uiso   1.00
H614614 H     0.35342   0.75258   0.79744   0.00000  Uiso   1.00
H615615 H     0.51457   0.52657   0.72669   0.00000  Uiso   1.00
H616616 H     0.40400   0.57913   0.59452   0.00000  Uiso   1.00
H617617 H     0.41609   0.56281   0.60449   0.00000  Uiso   1.00
H618618 H     0.46120   0.60348   0.53064   0.00000  Uiso   1.00
H619619 H     0.44921   0.61996   0.52050   0.00000  Uiso   1.00
H620620 H     0.42647   0.62340   0.54042   0.00000  Uiso   1.00
H621621 H     0.43749   0.53312   0.56435   0.00000  Uiso   1.00
H622622 H     0.44913   0.51634   0.59354   0.00000  Uiso   1.00
H623623 H     0.49422   0.55697   0.67386   0.00000  Uiso   1.00
H624624 H     0.48257   0.57376   0.64474   0.00000  Uiso   1.00
H625625 H     0.62988   0.29712   0.85784   0.00000  Uiso   1.00
H626626 H     0.61690   0.26920   0.91347   0.00000  Uiso   1.00
H627627 H     0.65855   0.26888   0.74558   0.00000  Uiso   1.00
H628628 H     0.67171   0.29690   0.69846   0.00000  Uiso   1.00
H629629 H     0.60593   0.24528   0.76559   0.00000  Uiso   1.00
H630630 H     0.59266   0.21714   0.81505   0.00000  Uiso   1.00
H631631 H     0.63563   0.22098   1.00730   0.00000  Uiso   1.00
H632632 H     0.64876   0.24893   0.96398   0.00000  Uiso   1.00
H633633 H     0.48876   0.01620   1.27370   0.00000  Uiso   1.00
H634634 H     0.57858   0.17443   0.98148   0.00000  Uiso   1.00
H635635 H     0.56223   0.14626   1.03010   0.00000  Uiso   1.00
H636636 H     0.60306   0.14168   1.05464   0.00000  Uiso   1.00
H637637 H     0.61956   0.16988   1.00591   0.00000  Uiso   1.00
H638638 H     0.62291   0.19587   0.95622   0.00000  Uiso   1.00
H639639 H     0.53273   0.09478   1.09922   0.00000  Uiso   1.00
H640640 H     0.51672   0.06637   1.14432   0.00000  Uiso   1.00
H641641 H     0.55826   0.06326   1.20189   0.00000  Uiso   1.00
H642642 H     0.57426   0.09163   1.15656   0.00000  Uiso   1.00
H643643 H     0.29799   0.66975   0.76196   0.00000  Uiso   1.00
H644644 H     0.26980   0.65490   0.74273   0.00000  Uiso   1.00
H645645 H     0.27209   0.61468   0.55231   0.00000  Uiso   1.00
H646646 H     0.30025   0.62934   0.57933   0.00000  Uiso   1.00
H647647 H     0.24877   0.64383   0.53621   0.00000  Uiso   1.00
H648648 H     0.22042   0.62884   0.51842   0.00000  Uiso   1.00
H649649 H     0.22115   0.58785   0.70771   0.00000  Uiso   1.00
H650650 H     0.24925   0.60273   0.73030   0.00000  Uiso   1.00
H651651 H     0.47219   0.98777   1.28201   0.00000  Uiso   1.00
H652652 H     0.42169   0.82502   1.03150   0.00000  Uiso   1.00
H653653 H     0.43748   0.85320   1.08316   0.00000  Uiso   1.00
H654654 H     0.39597   0.85653   1.11608   0.00000  Uiso   1.00
H655655 H     0.38002   0.82830   1.06446   0.00000  Uiso   1.00
H656656 H     0.37734   0.80260   1.01021   0.00000  Uiso   1.00
H657657 H     0.46588   0.90316   1.21050   0.00000  Uiso   1.00
H658658 H     0.48234   0.93160   1.24487   0.00000  Uiso   1.00
H659659 H     0.44198   0.93673   1.18273   0.00000  Uiso   1.00
H660660 H     0.42550   0.90826   1.14855   0.00000  Uiso   1.00
H661661 H     0.70349   0.33025   0.72297   0.00000  Uiso   1.00
H662662 H     0.73154   0.34535   0.68795   0.00000  Uiso   1.00
H663663 H     0.72801   0.38518   0.51023   0.00000  Uiso   1.00
H664664 H     0.69999   0.37025   0.55335   0.00000  Uiso   1.00
H665665 H     0.75207   0.35666   0.47694   0.00000  Uiso   1.00
H666666 H     0.78040   0.37185   0.45691   0.00000  Uiso   1.00
H667667 H     0.77939   0.41259   0.65037   0.00000  Uiso   1.00
H668668 H     0.75133   0.39751   0.67614   0.00000  Uiso   1.00
H669669 H     0.98459   0.47313   0.60068   0.00000  Uiso   1.00
H670670 H     0.82501   0.40213   0.53738   0.00000  Uiso   1.00
H671671 H     0.85343   0.41456   0.53282   0.00000  Uiso   1.00
H672672 H     0.85719   0.45970   0.49601   0.00000  Uiso   1.00
H673673 H     0.82873   0.44737   0.50053   0.00000  Uiso   1.00
H674674 H     0.80272   0.42428   0.51998   0.00000  Uiso   1.00
H675675 H     0.90505   0.43756   0.47409   0.00000  Uiso   1.00
H676676 H     0.93362   0.45027   0.48798   0.00000  Uiso   1.00
H677677 H     0.93648   0.49454   0.58707   0.00000  Uiso   1.00
H678678 H     0.90793   0.48184   0.57299   0.00000  Uiso   1.00
H679679 H     0.44769   0.47487   0.84634   0.00000  Uiso   1.00
H680680 H     0.45100   0.49216   0.72287   0.00000  Uiso   1.00
H681681 H     0.46386   0.49346   0.91122   0.00000  Uiso   1.00
H682682 H     0.48668   0.46213   0.93188   0.00000  Uiso   1.00
H683683 H     0.48336   0.44790   0.75155   0.00000  Uiso   1.00
H684684 H     0.46719   0.44814   0.86312   0.00000  Uiso   1.00
H685685 H     1.04093   0.54952   0.61418   0.00000  Uiso   1.00
H686686 H     1.02892   0.53614   0.79637   0.00000  Uiso   1.00
H687687 H     1.02623   0.55212   0.72943   0.00000  Uiso   1.00
H688688 H     0.97370   0.51426   0.78086   0.00000  Uiso   1.00
H689689 H     0.97680   0.53174   0.66467   0.00000  Uiso   1.00
H690690 H     0.99278   0.53177   0.78527   0.00000  Uiso   1.00
H691691 H     0.55075   1.03453   1.27189   0.00000  Uiso   1.00
H692692 H     0.55060   1.01861   1.39645   0.00000  Uiso   1.00
H693693 H     0.53695   1.02471   1.45979   0.00000  Uiso   1.00
H694694 H     0.52282   0.96825   1.34676   0.00000  Uiso   1.00
H695695 H     0.50690   0.96849   1.46449   0.00000  Uiso   1.00
H696696 H     0.52612   0.98582   1.46296   0.00000  Uiso   1.00
loop_
_geom_bond_atom_site_label_1
_geom_bond_atom_site_label_2
_geom_bond_distance
_geom_bond_site_symmetry_2
_ccdc_geom_bond_type
N11    C7676   1.358   .     D
N11    C150150  1.357   .     S
C22    N7575   1.358   .     S
C22    N149149  1.358   .     D
C22    C151151  1.482   .     S
C33    C44     1.405   .     D
C33    C88     1.405   .     S
C33    C7676   1.481   .     S
C44    C55     1.397   .     S
C44    H445445  1.083   .     S
C55    C66     1.407   .     D
C55    H446446  1.082   .     S
C66    C77     1.406   .     S
C66    C99     1.487   .     S
C77    C88     1.396   .     D
C77    H447447  1.083   .     S
C88    H448448  1.083   .     S
C99    C1010   1.406   .     D
C99    C1414   1.407   .     S
C1010  C1111   1.397   .     S
C1010  H449449  1.082   .     S
C1111  C1212   1.398   .     D
C1111  H450450  1.083   .     S
C1212  C1313   1.408   .     S
C1212  N9999   1.438   .     S
C1313  C1414   1.396   .     D
C1313  H451451  1.080   .     S
C1414  H452452  1.082   .     S
C1515  C1717   1.399   .     S
C1515  H453453  1.083   .     S
C1515  C197197  1.393   1_455 D
C1616  C1717   1.414   .     D
C1616  O145145  1.406   .     S
C1616  C199199  1.406   1_455 S
C1717  C3535   1.440   .     S
C1818  C1919   1.398   .     D
C1818  C2323   1.407   .     S
C1818  H454454  1.082   .     S
C1919  C2020   1.399   .     S
C1919  H455455  1.084   .     S
C2020  C2121   1.400   .     D
C2020  C2626   1.438   .     S
C2121  C2222   1.397   .     S
C2121  H456456  1.083   .     S
C2222  C2323   1.404   .     D
C2222  H457457  1.083   .     S
C2323  C2424   1.475   .     S
C2424  N2525   1.299   .     D
C2424  H458458  1.082   .     S
N2525  C160160  1.437   .     S
C2626  C2727   1.205   .     T
C2727  C2828   1.437   .     S
C2828  C2929   1.400   .     S
C2828  C3333   1.400   .     D
C2929  C3030   1.399   .     D
C2929  H459459  1.083   .     S
C3030  C3131   1.401   .     S
C3030  H460460  1.083   .     S
C3131  C3232   1.400   .     D
C3131  C3434   1.437   .     S
C3232  C3333   1.398   .     S
C3232  H461461  1.084   .     S
C3333  H462462  1.084   .     S
C3434  C3535   1.205   .     T
N3636  C111111  1.358   .     S
N3636  C185185  1.358   .     D
C3737  C3838   1.482   .     S
C3737  N110110  1.359   .     D
C3737  N184184  1.359   .     S
C3838  C3939   1.405   .     D
C3838  C4343   1.405   .     S
C3939  C4040   1.397   .     S
C3939  H463463  1.083   .     S
C4040  C4141   1.406   .     D
C4040  H464464  1.083   .     S
C4141  C4242   1.406   .     S
C4141  C4444   1.488   .     S
C4242  C4343   1.396   .     D
C4242  H465465  1.082   .     S
C4343  H466466  1.083   .     S
C4444  C4545   1.407   .     D
C4444  C4848   1.407   .     S
C4545  C4646   1.397   .     S
C4545  H467467  1.082   .     S
C4646  C7070   1.398   .     D
C4646  H468468  1.083   .     S
C4747  C4848   1.397   .     D
C4747  C7070   1.407   .     S
C4747  H469469  1.080   .     S
C4848  H470470  1.083   .     S
C4949  C5050   1.397   .     D
C4949  C8989   1.395   .     S
C4949  H471471  1.083   .     S
C5050  C5151   1.405   .     S
C5050  C6969   1.439   .     S
C5151  O7373   1.401   .     S
C5151  C9090   1.405   .     D
C5252  C5353   1.398   .     S
C5252  C5757   1.407   .     D
C5252  H472472  1.082   .     S
C5353  C5454   1.399   .     D
C5353  H473473  1.083   .     S
C5454  C5555   1.399   .     S
C5454  C6060   1.439   .     S
C5555  C5656   1.398   .     D
C5555  H474474  1.083   .     S
C5656  C5757   1.404   .     S
C5656  H475475  1.083   .     S
C5757  C5858   1.476   .     S
C5858  N5959   1.300   .     D
C5858  H476476  1.081   .     S
N5959  C7070   1.438   .     S
C6060  C6161   1.204   .     T
C6161  C6262   1.439   .     S
C6262  C6363   1.400   .     D
C6262  C6767   1.401   .     S
C6363  C6464   1.397   .     S
C6363  H477477  1.084   .     S
C6464  C6565   1.400   .     D
C6464  H478478  1.083   .     S
C6565  C6666   1.401   .     S
C6565  C6868   1.438   .     S
C6666  C6767   1.398   .     D
C6666  H479479  1.083   .     S
C6767  H480480  1.083   .     S
C6868  C6969   1.204   .     T
O7171  C7272   1.425   .     S
O7171  C164164  1.400   .     S
C7272  H481481  1.111   .     S
C7272  H482482  1.109   .     S
C7272  H483483  1.112   .     S
O7373  C7474   1.425   .     S
C7474  H484484  1.109   .     S
C7474  H485485  1.111   .     S
C7474  H486486  1.112   .     S
N7575  C150150  1.358   .     D
C7676  N149149  1.358   .     S
C7777  C7878   1.405   .     D
C7777  C8282   1.404   .     S
C7777  C150150  1.481   .     S
C7878  C7979   1.396   .     S
C7878  H487487  1.082   .     S
C7979  C8080   1.407   .     D
C7979  H488488  1.082   .     S
C8080  C8181   1.408   .     S
C8080  C8383   1.491   .     S
C8181  C8282   1.397   .     D
C8181  H489489  1.081   .     S
C8282  H490490  1.082   .     S
C8383  C8484   1.408   .     D
C8383  C8888   1.407   .     S
C8484  C8585   1.396   .     S
C8484  H491491  1.081   .     S
C8585  C8686   1.397   .     D
C8585  H492492  1.083   .     S
C8686  C8787   1.407   .     S
C8686  N173173  1.437   .     S
C8787  C8888   1.397   .     D
C8787  H493493  1.080   .     S
C8888  H494494  1.082   .     S
C8989  C9191   1.399   .     D
C8989  H495495  1.083   .     S
C9090  C9191   1.413   .     S
C9090  O219219  1.405   .     S
C9191  C109109  1.439   .     S
C9292  C9393   1.398   .     S
C9292  C9797   1.407   .     D
C9292  H496496  1.083   .     S
C9393  C9494   1.400   .     D
C9393  H497497  1.083   .     S
C9494  C9595   1.400   .     S
C9494  C100100  1.437   .     S
C9595  C9696   1.397   .     D
C9595  H498498  1.084   .     S
C9696  C9797   1.404   .     S
C9696  H499499  1.082   .     S
C9797  C9898   1.476   .     S
C9898  N9999   1.300   .     D
C9898  H500500  1.080   .     S
C100100 C101101  1.204   .     T
C101101 C102102  1.438   .     S
C102102 C103103  1.401   .     D
C102102 C107107  1.400   .     S
C103103 C104104  1.399   .     S
C103103 H501501  1.083   .     S
C104104 C105105  1.400   .     D
C104104 H502502  1.083   .     S
C105105 C106106  1.400   .     S
C105105 C108108  1.438   .     S
C106106 C107107  1.399   .     D
C106106 H503503  1.083   .     S
C107107 H504504  1.083   .     S
C108108 C109109  1.204   .     T
N110110 C185185  1.357   .     S
C111111 C112112  1.481   .     S
C111111 N184184  1.358   .     D
C112112 C113113  1.405   .     D
C112112 C117117  1.404   .     S
C113113 C114114  1.397   .     S
C113113 H505505  1.082   .     S
C114114 C115115  1.407   .     D
C114114 H506506  1.082   .     S
C115115 C116116  1.407   .     S
C115115 C118118  1.489   .     S
C116116 C117117  1.397   .     D
C116116 H507507  1.081   .     S
C117117 H508508  1.082   .     S
C118118 C119119  1.407   .     D
C118118 C122122  1.408   .     S
C119119 C120120  1.397   .     S
C119119 H509509  1.082   .     S
C120120 C144144  1.399   .     D
C120120 H510510  1.083   .     S
C121121 C122122  1.397   .     D
C121121 C144144  1.407   .     S
C121121 H511511  1.081   .     S
C122122 H512512  1.081   .     S
C123123 C124124  1.399   .     D
C123123 H513513  1.083   .     S
C123123 C163163  1.394   1_545 S
C124124 C125125  1.413   .     S
C124124 C143143  1.440   .     S
C125125 O147147  1.405   .     S
C125125 C164164  1.405   1_545 D
C126126 C127127  1.398   .     S
C126126 C131131  1.407   .     D
C126126 H514514  1.082   .     S
C127127 C128128  1.398   .     D
C127127 H515515  1.084   .     S
C128128 C129129  1.399   .     S
C128128 C134134  1.438   .     S
C129129 C130130  1.398   .     D
C129129 H516516  1.082   .     S
C130130 C131131  1.403   .     S
C130130 H517517  1.083   .     S
C131131 C132132  1.476   .     S
C132132 N133133  1.300   .     D
C132132 H518518  1.081   .     S
N133133 C144144  1.437   .     S
C134134 C135135  1.205   .     T
C135135 C136136  1.438   .     S
C136136 C137137  1.401   .     D
C136136 C141141  1.402   .     S
C137137 C138138  1.398   .     S
C137137 H519519  1.083   .     S
C138138 C139139  1.401   .     D
C138138 H520520  1.083   .     S
C139139 C140140  1.401   .     S
C139139 C142142  1.438   .     S
C140140 C141141  1.398   .     D
C140140 H521521  1.083   .     S
C141141 H522522  1.083   .     S
C142142 C143143  1.204   .     T
O145145 C146146  1.430   .     S
C146146 H523523  1.109   .     S
C146146 H524524  1.110   .     S
C146146 H525525  1.110   .     S
O147147 C148148  1.430   .     S
C148148 H526526  1.109   .     S
C148148 H527527  1.111   .     S
C148148 H528528  1.109   .     S
C151151 C152152  1.405   .     S
C151151 C156156  1.405   .     D
C152152 C153153  1.396   .     D
C152152 H529529  1.082   .     S
C153153 C154154  1.406   .     S
C153153 H530530  1.083   .     S
C154154 C155155  1.406   .     D
C154154 C157157  1.489   .     S
C155155 C156156  1.397   .     S
C155155 H531531  1.082   .     S
C156156 H532532  1.083   .     S
C157157 C158158  1.407   .     S
C157157 C162162  1.407   .     D
C158158 C159159  1.397   .     D
C158158 H533533  1.081   .     S
C159159 C160160  1.399   .     S
C159159 H534534  1.083   .     S
C160160 C161161  1.407   .     D
C161161 C162162  1.397   .     S
C161161 H535535  1.080   .     S
C162162 H536536  1.083   .     S
C163163 C165165  1.398   .     D
C163163 H537537  1.083   .     S
C163163 C123123  1.394   1_565 S
C164164 C165165  1.405   .     S
C164164 C125125  1.405   1_565 D
C165165 C183183  1.439   .     S
C166166 C167167  1.397   .     S
C166166 C171171  1.407   .     D
C166166 H538538  1.082   .     S
C167167 C168168  1.400   .     D
C167167 H539539  1.083   .     S
C168168 C169169  1.399   .     S
C168168 C174174  1.438   .     S
C169169 C170170  1.398   .     D
C169169 H540540  1.084   .     S
C170170 C171171  1.405   .     S
C170170 H541541  1.083   .     S
C171171 C172172  1.475   .     S
C172172 N173173  1.300   .     D
C172172 H542542  1.082   .     S
C174174 C175175  1.205   .     T
C175175 C176176  1.438   .     S
C176176 C177177  1.401   .     D
C176176 C181181  1.401   .     S
C177177 C178178  1.399   .     S
C177177 H543543  1.083   .     S
C178178 C179179  1.400   .     D
C178178 H544544  1.084   .     S
C179179 C180180  1.400   .     S
C179179 C182182  1.437   .     S
C180180 C181181  1.397   .     D
C180180 H545545  1.084   .     S
C181181 H546546  1.083   .     S
C182182 C183183  1.204   .     T
C185185 C186186  1.481   .     S
C186186 C187187  1.404   .     S
C186186 C191191  1.405   .     D
C187187 C188188  1.396   .     D
C187187 H547547  1.083   .     S
C188188 C189189  1.406   .     S
C188188 H548548  1.082   .     S
C189189 C190190  1.407   .     D
C189189 C192192  1.489   .     S
C190190 C191191  1.396   .     S
C190190 H549549  1.083   .     S
C191191 H550550  1.083   .     S
C192192 C193193  1.407   .     S
C192192 C196196  1.407   .     D
C193193 C194194  1.396   .     D
C193193 H551551  1.082   .     S
C194194 C218218  1.399   .     S
C194194 H552552  1.082   .     S
C195195 C196196  1.397   .     S
C195195 C218218  1.407   .     D
C195195 H553553  1.081   .     S
C196196 H554554  1.082   .     S
C197197 C198198  1.397   .     S
C197197 H555555  1.084   .     S
C197197 C1515   1.393   1_655 D
C198198 C199199  1.413   .     D
C198198 C217217  1.439   .     S
C199199 O221221  1.405   .     S
C199199 C1616   1.406   1_655 S
C200200 C201201  1.398   .     D
C200200 C205205  1.407   .     S
C200200 H556556  1.082   .     S
C201201 C202202  1.399   .     S
C201201 H557557  1.083   .     S
C202202 C203203  1.400   .     D
C202202 C208208  1.437   .     S
C203203 C204204  1.397   .     S
C203203 H558558  1.083   .     S
C204204 C205205  1.404   .     D
C204204 H559559  1.083   .     S
C205205 C206206  1.476   .     S
C206206 N207207  1.299   .     D
C206206 H560560  1.082   .     S
N207207 C218218  1.437   .     S
C208208 C209209  1.204   .     T
C209209 C210210  1.437   .     S
C210210 C211211  1.400   .     S
C210210 C215215  1.401   .     D
C211211 C212212  1.398   .     D
C211211 H561561  1.083   .     S
C212212 C213213  1.400   .     S
C212212 H562562  1.083   .     S
C213213 C214214  1.401   .     D
C213213 C216216  1.436   .     S
C214214 C215215  1.398   .     S
C214214 H563563  1.084   .     S
C215215 H564564  1.083   .     S
C216216 C217217  1.205   .     T
O219219 C220220  1.430   .     S
C220220 H565565  1.111   .     S
C220220 H566566  1.110   .     S
C220220 H567567  1.109   .     S
O221221 C222222  1.430   .     S
C222222 H568568  1.109   .     S
C222222 H569569  1.109   .     S
C222222 H570570  1.111   .     S
N223223 C294294  1.358   .     S
N223223 C364364  1.358   .     D
C224224 N293293  1.358   .     D
C224224 N363363  1.359   .     S
C224224 C365365  1.481   .     S
C225225 C226226  1.405   .     S
C225225 C230230  1.405   .     D
C225225 C294294  1.482   .     S
C226226 C227227  1.397   .     D
C226226 H571571  1.083   .     S
C227227 C228228  1.406   .     S
C227227 H572572  1.083   .     S
C228228 C229229  1.406   .     D
C228228 C231231  1.489   .     S
C229229 C230230  1.397   .     S
C229229 H573573  1.083   .     S
C230230 H574574  1.082   .     S
C231231 C232232  1.406   .     S
C231231 C236236  1.407   .     D
C232232 C233233  1.397   .     D
C232232 H575575  1.083   .     S
C233233 C234234  1.399   .     S
C233233 H576576  1.083   .     S
C234234 C235235  1.408   .     D
C234234 N317317  1.437   .     S
C235235 C236236  1.397   .     S
C235235 H577577  1.080   .     S
C236236 H578578  1.082   .     S
C237237 C239239  1.414   .     D
C237237 C411411  1.405   1_455 S
C237237 O437437  1.405   1_455 S
C238238 C239239  1.399   .     S
C238238 H579579  1.083   .     S
C238238 C413413  1.394   1_455 D
C239239 C257257  1.440   .     S
C240240 C241241  1.398   .     S
C240240 C245245  1.406   .     D
C240240 H580580  1.083   .     S
C241241 C242242  1.399   .     D
C241241 H581581  1.084   .     S
C242242 C243243  1.399   .     S
C242242 C248248  1.438   .     S
C243243 C244244  1.398   .     D
C243243 H582582  1.083   .     S
C244244 C245245  1.404   .     S
C244244 H583583  1.083   .     S
C245245 C246246  1.475   .     S
C246246 N247247  1.299   .     D
C246246 H584584  1.082   .     S
N247247 C374374  1.436   .     S
C248248 C249249  1.205   .     T
C249249 C250250  1.437   .     S
C250250 C251251  1.400   .     D
C250250 C255255  1.401   .     S
C251251 C252252  1.398   .     S
C251251 H585585  1.084   .     S
C252252 C253253  1.401   .     D
C252252 H586586  1.082   .     S
C253253 C254254  1.401   .     S
C253253 C256256  1.437   .     S
C254254 C255255  1.398   .     D
C254254 H587587  1.083   .     S
C255255 H588588  1.083   .     S
C256256 C257257  1.204   .     T
N258258 C329329  1.359   .     D
N258258 C399399  1.359   .     S
C259259 C260260  1.481   .     S
C259259 N328328  1.358   .     S
C259259 N398398  1.358   .     D
C260260 C261261  1.406   .     D
C260260 C265265  1.405   .     S
C261261 C262262  1.397   .     S
C261261 H589589  1.082   .     S
C262262 C263263  1.406   .     D
C262262 H590590  1.082   .     S
C263263 C264264  1.406   .     S
C263263 C266266  1.488   .     S
C264264 C265265  1.396   .     D
C264264 H591591  1.083   .     S
C265265 H592592  1.083   .     S
C266266 C267267  1.407   .     D
C266266 C270270  1.406   .     S
C267267 C268268  1.396   .     S
C267267 H593593  1.082   .     S
C268268 C292292  1.399   .     D
C268268 H594594  1.083   .     S
C269269 C270270  1.396   .     D
C269269 C292292  1.408   .     S
C269269 H595595  1.080   .     S
C270270 H596596  1.082   .     S
C271271 C272272  1.413   .     D
C271271 C307307  1.405   .     S
C271271 O435435  1.405   .     S
C272272 C273273  1.397   .     S
C272272 C291291  1.440   .     S
C273273 C308308  1.393   .     D
C273273 H597597  1.083   .     S
C274274 C275275  1.398   .     S
C274274 C279279  1.407   .     D
C274274 H598598  1.082   .     S
C275275 C276276  1.399   .     D
C275275 H599599  1.083   .     S
C276276 C277277  1.399   .     S
C276276 C282282  1.439   .     S
C277277 C278278  1.398   .     D
C277277 H600600  1.083   .     S
C278278 C279279  1.403   .     S
C278278 H601601  1.083   .     S
C279279 C280280  1.476   .     S
C280280 N281281  1.300   .     D
C280280 H602602  1.081   .     S
N281281 C292292  1.436   .     S
C282282 C283283  1.204   .     T
C283283 C284284  1.438   .     S
C284284 C285285  1.401   .     D
C284284 C289289  1.400   .     S
C285285 C286286  1.399   .     S
C285285 H603603  1.084   .     S
C286286 C287287  1.400   .     D
C286286 H604604  1.083   .     S
C287287 C288288  1.400   .     S
C287287 C290290  1.437   .     S
C288288 C289289  1.398   .     D
C288288 H605605  1.083   .     S
C289289 H606606  1.083   .     S
C290290 C291291  1.204   .     T
N293293 C364364  1.358   .     S
C294294 N363363  1.358   .     D
C295295 C296296  1.404   .     D
C295295 C300300  1.405   .     S
C295295 C364364  1.480   .     S
C296296 C297297  1.397   .     S
C296296 H607607  1.083   .     S
C297297 C298298  1.407   .     D
C297297 H608608  1.081   .     S
C298298 C299299  1.407   .     S
C298298 C301301  1.491   .     S
C299299 C300300  1.396   .     D
C299299 H609609  1.081   .     S
C300300 H610610  1.083   .     S
C301301 C302302  1.408   .     D
C301301 C306306  1.408   .     S
C302302 C303303  1.397   .     S
C302302 H611611  1.081   .     S
C303303 C304304  1.398   .     D
C303303 H612612  1.082   .     S
C304304 C305305  1.406   .     S
C304304 N387387  1.436   .     S
C305305 C306306  1.398   .     D
C305305 H613613  1.080   .     S
C306306 H614614  1.082   .     S
C307307 C309309  1.413   .     D
C307307 O433433  1.405   .     S
C308308 C309309  1.397   .     S
C308308 H615615  1.083   .     S
C309309 C327327  1.441   .     S
C310310 C311311  1.398   .     D
C310310 C315315  1.407   .     S
C310310 H616616  1.082   .     S
C311311 C312312  1.399   .     S
C311311 H617617  1.083   .     S
C312312 C313313  1.399   .     D
C312312 C318318  1.438   .     S
C313313 C314314  1.398   .     S
C313313 H618618  1.083   .     S
C314314 C315315  1.403   .     D
C314314 H619619  1.083   .     S
C315315 C316316  1.477   .     S
C316316 N317317  1.299   .     D
C316316 H620620  1.080   .     S
C318318 C319319  1.205   .     T
C319319 C320320  1.438   .     S
C320320 C321321  1.400   .     S
C320320 C325325  1.401   .     D
C321321 C322322  1.398   .     D
C321321 H621621  1.083   .     S
C322322 C323323  1.400   .     S
C322322 H622622  1.083   .     S
C323323 C324324  1.401   .     D
C323323 C326326  1.437   .     S
C324324 C325325  1.398   .     S
C324324 H623623  1.083   .     S
C325325 H624624  1.083   .     S
C326326 C327327  1.204   .     T
N328328 C399399  1.358   .     D
C329329 C330330  1.481   .     S
C329329 N398398  1.358   .     S
C330330 C331331  1.405   .     D
C330330 C335335  1.405   .     S
C331331 C332332  1.397   .     S
C331331 H625625  1.081   .     S
C332332 C333333  1.406   .     D
C332332 H626626  1.082   .     S
C333333 C334334  1.407   .     S
C333333 C336336  1.490   .     S
C334334 C335335  1.397   .     D
C334334 H627627  1.081   .     S
C335335 H628628  1.082   .     S
C336336 C337337  1.407   .     D
C336336 C340340  1.407   .     S
C337337 C338338  1.397   .     S
C337337 H629629  1.081   .     S
C338338 C362362  1.398   .     D
C338338 H630630  1.083   .     S
C339339 C340340  1.397   .     D
C339339 C362362  1.408   .     S
C339339 H631631  1.081   .     S
C340340 H632632  1.082   .     S
C341341 C342342  1.414   .     D
C341341 C377377  1.404   1_545 S
C341341 O441441  1.405   1_545 S
C342342 C343343  1.399   .     S
C342342 C361361  1.439   .     S
C343343 H633633  1.084   .     S
C343343 C378378  1.394   1_545 D
C344344 C345345  1.398   .     S
C344344 C349349  1.407   .     D
C344344 H634634  1.082   .     S
C345345 C346346  1.399   .     D
C345345 H635635  1.083   .     S
C346346 C347347  1.399   .     S
C346346 C352352  1.438   .     S
C347347 C348348  1.398   .     D
C347347 H636636  1.083   .     S
C348348 C349349  1.403   .     S
C348348 H637637  1.083   .     S
C349349 C350350  1.476   .     S
C350350 N351351  1.300   .     D
C350350 H638638  1.081   .     S
N351351 C362362  1.437   .     S
C352352 C353353  1.205   .     T
C353353 C354354  1.438   .     S
C354354 C355355  1.401   .     D
C354354 C359359  1.400   .     S
C355355 C356356  1.399   .     S
C355355 H639639  1.084   .     S
C356356 C357357  1.400   .     D
C356356 H640640  1.083   .     S
C357357 C358358  1.400   .     S
C357357 C360360  1.437   .     S
C358358 C359359  1.398   .     D
C358358 H641641  1.083   .     S
C359359 H642642  1.084   .     S
C360360 C361361  1.205   .     T
C365365 C366366  1.406   .     D
C365365 C370370  1.405   .     S
C366366 C367367  1.396   .     S
C366366 H643643  1.082   .     S
C367367 C368368  1.407   .     D
C367367 H644644  1.082   .     S
C368368 C369369  1.406   .     S
C368368 C371371  1.488   .     S
C369369 C370370  1.397   .     D
C369369 H645645  1.082   .     S
C370370 H646646  1.083   .     S
C371371 C372372  1.407   .     D
C371371 C376376  1.406   .     S
C372372 C373373  1.397   .     S
C372372 H647647  1.081   .     S
C373373 C374374  1.399   .     D
C373373 H648648  1.083   .     S
C374374 C375375  1.408   .     S
C375375 C376376  1.397   .     D
C375375 H649649  1.080   .     S
C376376 H650650  1.083   .     S
C377377 C379379  1.406   .     D
C377377 O443443  1.401   .     S
C377377 C341341  1.404   1_565 S
C378378 C379379  1.396   .     S
C378378 H651651  1.083   .     S
C378378 C343343  1.394   1_565 D
C379379 C397397  1.439   .     S
C380380 C381381  1.397   .     S
C380380 C385385  1.407   .     D
C380380 H652652  1.083   .     S
C381381 C382382  1.399   .     D
C381381 H653653  1.083   .     S
C382382 C383383  1.399   .     S
C382382 C388388  1.437   .     S
C383383 C384384  1.398   .     D
C383383 H654654  1.083   .     S
C384384 C385385  1.403   .     S
C384384 H655655  1.083   .     S
C385385 C386386  1.476   .     S
C386386 N387387  1.300   .     D
C386386 H656656  1.081   .     S
C388388 C389389  1.205   .     T
C389389 C390390  1.438   .     S
C390390 C391391  1.401   .     D
C390390 C395395  1.399   .     S
C391391 C392392  1.398   .     S
C391391 H657657  1.083   .     S
C392392 C393393  1.400   .     D
C392392 H658658  1.084   .     S
C393393 C394394  1.400   .     S
C393393 C396396  1.437   .     S
C394394 C395395  1.399   .     D
C394394 H659659  1.083   .     S
C395395 H660660  1.084   .     S
C396396 C397397  1.204   .     T
C399399 C400400  1.481   .     S
C400400 C401401  1.405   .     D
C400400 C405405  1.405   .     S
C401401 C402402  1.396   .     S
C401401 H661661  1.083   .     S
C402402 C403403  1.407   .     D
C402402 H662662  1.082   .     S
C403403 C404404  1.406   .     S
C403403 C406406  1.489   .     S
C404404 C405405  1.397   .     D
C404404 H663663  1.082   .     S
C405405 H664664  1.083   .     S
C406406 C407407  1.407   .     D
C406406 C410410  1.407   .     S
C407407 C408408  1.397   .     S
C407407 H665665  1.082   .     S
C408408 C432432  1.398   .     D
C408408 H666666  1.083   .     S
C409409 C410410  1.398   .     D
C409409 C432432  1.407   .     S
C409409 H667667  1.080   .     S
C410410 H668668  1.082   .     S
C411411 C412412  1.405   .     D
C411411 O439439  1.401   .     S
C411411 C237237  1.405   1_655 S
C412412 C413413  1.397   .     S
C412412 C431431  1.439   .     S
C413413 H669669  1.083   .     S
C413413 C238238  1.394   1_655 D
C414414 C415415  1.398   .     S
C414414 C419419  1.407   .     D
C414414 H670670  1.082   .     S
C415415 C416416  1.399   .     D
C415415 H671671  1.084   .     S
C416416 C417417  1.400   .     S
C416416 C422422  1.438   .     S
C417417 C418418  1.398   .     D
C417417 H672672  1.083   .     S
C418418 C419419  1.404   .     S
C418418 H673673  1.082   .     S
C419419 C420420  1.476   .     S
C420420 N421421  1.299   .     D
C420420 H674674  1.082   .     S
N421421 C432432  1.437   .     S
C422422 C423423  1.205   .     T
C423423 C424424  1.438   .     S
C424424 C425425  1.401   .     D
C424424 C429429  1.401   .     S
C425425 C426426  1.398   .     S
C425425 H675675  1.083   .     S
C426426 C427427  1.401   .     D
C426426 H676676  1.083   .     S
C427427 C428428  1.400   .     S
C427427 C430430  1.436   .     S
C428428 C429429  1.398   .     D
C428428 H677677  1.084   .     S
C429429 H678678  1.083   .     S
C430430 C431431  1.204   .     T
O433433 C434434  1.430   .     S
C434434 H679679  1.109   .     S
C434434 H680680  1.110   .     S
C434434 H681681  1.111   .     S
O435435 C436436  1.430   .     S
C436436 H682682  1.110   .     S
C436436 H683683  1.110   .     S
C436436 H684684  1.109   .     S
O437437 C438438  1.430   .     S
O437437 C237237  1.405   1_655 S
C438438 H685685  1.109   .     S
C438438 H686686  1.111   .     S
C438438 H687687  1.109   .     S
O439439 C440440  1.425   .     S
C440440 H688688  1.111   .     S
C440440 H689689  1.109   .     S
C440440 H690690  1.112   .     S
O441441 C442442  1.430   .     S
O441441 C341341  1.405   1_565 S
C442442 H691691  1.109   .     S
C442442 H692692  1.109   .     S
C442442 H693693  1.111   .     S
O443443 C444444  1.425   .     S
C444444 H694694  1.108   .     S
C444444 H695695  1.112   .     S
C444444 H696696  1.112   .     S
