data_943
_audit_creation_date              2023-09-08
_audit_creation_method            'Materials Studio'
_symmetry_space_group_name_H-M    'P1'
_symmetry_Int_Tables_number       1
_symmetry_cell_setting            triclinic
loop_
_symmetry_equiv_pos_as_xyz
  x,y,z
_cell_length_a                    76.0312
_cell_length_b                    76.0312
_cell_length_c                    7.0659
_cell_angle_alpha                 90.0000
_cell_angle_beta                  90.0000
_cell_angle_gamma                 120.0000
loop_
_atom_site_label
_atom_site_type_symbol
_atom_site_fract_x
_atom_site_fract_y
_atom_site_fract_z
_atom_site_U_iso_or_equiv
_atom_site_adp_type
_atom_site_occupancy
C1     C     0.00933   0.48704   0.39544   0.00000  Uiso   1.00
C2     C     0.02187   0.50801   0.37589   0.00000  Uiso   1.00
C3     C     0.01329   0.52066   0.36587   0.00000  Uiso   1.00
C4     C     0.04344   0.51631   0.35686   0.00000  Uiso   1.00
C5     C     0.06151   0.52346   0.33983   0.00000  Uiso   1.00
C6     C     0.08310   0.53224   0.31903   0.00000  Uiso   1.00
C7     C     0.09173   0.51978   0.30972   0.00000  Uiso   1.00
C8     C     0.11274   0.52838   0.29002   0.00000  Uiso   1.00
C9     C     0.12532   0.54952   0.27921   0.00000  Uiso   1.00
C10    C     0.11651   0.56194   0.28824   0.00000  Uiso   1.00
C11    C     0.09551   0.55331   0.30806   0.00000  Uiso   1.00
C12    C     0.14748   0.55828   0.25939   0.00000  Uiso   1.00
C13    C     0.49107   0.01218   0.29937   0.00000  Uiso   1.00
C14    C     0.52068   0.00802   0.26869   0.00000  Uiso   1.00
C15    C     0.51210   0.02073   0.28060   0.00000  Uiso   1.00
C16    C     0.52451   0.04243   0.26502   0.00000  Uiso   1.00
C17    C     0.53503   0.06058   0.25239   0.00000  Uiso   1.00
C18    C     0.54783   0.08221   0.23829   0.00000  Uiso   1.00
C19    C     0.56883   0.09067   0.21769   0.00000  Uiso   1.00
C20    C     0.58139   0.11171   0.20692   0.00000  Uiso   1.00
C21    C     0.57308   0.12451   0.21658   0.00000  Uiso   1.00
C22    C     0.55193   0.11590   0.23624   0.00000  Uiso   1.00
C23    C     0.53939   0.09484   0.24708   0.00000  Uiso   1.00
C24    C     0.58672   0.14668   0.20758   0.00000  Uiso   1.00
N25    N     0.57953   0.15896   0.21786   0.00000  Uiso   1.00
N26    N     0.15946   0.57781   0.25218   0.00000  Uiso   1.00
C27    C     0.32264   0.67669   0.17271   0.00000  Uiso   1.00
C28    C     0.31211   0.65544   0.17032   0.00000  Uiso   1.00
C29    C     0.35483   0.71046   0.17198   0.00000  Uiso   1.00
C30    C     0.37554   0.72183   0.12407   0.00000  Uiso   1.00
C31    C     0.38580   0.74301   0.12928   0.00000  Uiso   1.00
C32    C     0.37570   0.75342   0.18402   0.00000  Uiso   1.00
C33    C     0.35502   0.74209   0.23198   0.00000  Uiso   1.00
C34    C     0.34470   0.72092   0.22522   0.00000  Uiso   1.00
C35    C     0.38670   0.77597   0.19239   0.00000  Uiso   1.00
C36    C     0.40717   0.78688   0.24878   0.00000  Uiso   1.00
C37    C     0.41745   0.80804   0.25723   0.00000  Uiso   1.00
C38    C     0.40751   0.81878   0.21268   0.00000  Uiso   1.00
C39    C     0.38710   0.80799   0.15389   0.00000  Uiso   1.00
C40    C     0.37684   0.78682   0.14390   0.00000  Uiso   1.00
C41    C     0.64599   0.32250   0.22532   0.00000  Uiso   1.00
C42    C     0.65647   0.31172   0.22318   0.00000  Uiso   1.00
C43    C     0.64495   0.35492   0.23428   0.00000  Uiso   1.00
C44    C     0.65459   0.37562   0.18627   0.00000  Uiso   1.00
C45    C     0.64388   0.38611   0.18906   0.00000  Uiso   1.00
C46    C     0.62330   0.37625   0.24178   0.00000  Uiso   1.00
C47    C     0.61367   0.35559   0.29038   0.00000  Uiso   1.00
C48    C     0.62431   0.34504   0.28574   0.00000  Uiso   1.00
C49    C     0.61193   0.38747   0.24657   0.00000  Uiso   1.00
C50    C     0.62161   0.40796   0.30161   0.00000  Uiso   1.00
C51    C     0.61092   0.41846   0.30570   0.00000  Uiso   1.00
C52    C     0.59031   0.40872   0.25803   0.00000  Uiso   1.00
C53    C     0.58058   0.38827   0.20093   0.00000  Uiso   1.00
C54    C     0.59130   0.37779   0.19539   0.00000  Uiso   1.00
O55    O     0.51616   0.97427   0.24167   0.00000  Uiso   1.00
O56    O     0.98362   0.52449   0.33946   0.00000  Uiso   1.00
C57    C     0.44601   0.48492   0.34551   0.00000  Uiso   1.00
C58    C     0.46848   0.44660   0.39789   0.00000  Uiso   1.00
C59    C     0.51219   0.52074   0.27678   0.00000  Uiso   1.00
C60    C     0.49119   0.51210   0.25365   0.00000  Uiso   1.00
C61    C     0.47872   0.49078   0.24381   0.00000  Uiso   1.00
C62    C     0.48285   0.52530   0.23136   0.00000  Uiso   1.00
C63    C     0.47578   0.53627   0.21315   0.00000  Uiso   1.00
C64    C     0.46715   0.54920   0.19260   0.00000  Uiso   1.00
C65    C     0.47976   0.57007   0.16474   0.00000  Uiso   1.00
C66    C     0.47135   0.58266   0.14811   0.00000  Uiso   1.00
C67    C     0.45023   0.57451   0.15905   0.00000  Uiso   1.00
C68    C     0.43765   0.55349   0.18579   0.00000  Uiso   1.00
C69    C     0.44609   0.54094   0.20251   0.00000  Uiso   1.00
C70    C     0.44169   0.58812   0.14447   0.00000  Uiso   1.00
C71    C     0.98828   0.47849   0.39885   0.00000  Uiso   1.00
C72    C     0.99206   0.51202   0.36903   0.00000  Uiso   1.00
C73    C     0.97956   0.49081   0.38257   0.00000  Uiso   1.00
C74    C     0.95782   0.48149   0.37058   0.00000  Uiso   1.00
C75    C     0.93964   0.47388   0.35946   0.00000  Uiso   1.00
C76    C     0.91799   0.46503   0.34573   0.00000  Uiso   1.00
C77    C     0.90933   0.47749   0.34871   0.00000  Uiso   1.00
C78    C     0.88828   0.46896   0.33553   0.00000  Uiso   1.00
C79    C     0.87566   0.44787   0.31937   0.00000  Uiso   1.00
C80    C     0.88447   0.43543   0.31613   0.00000  Uiso   1.00
C81    C     0.90554   0.44400   0.32917   0.00000  Uiso   1.00
C82    C     0.85347   0.43924   0.30651   0.00000  Uiso   1.00
N83    N     0.84134   0.41974   0.29769   0.00000  Uiso   1.00
N84    N     0.42222   0.58094   0.15723   0.00000  Uiso   1.00
C85    C     0.32329   0.64538   0.16238   0.00000  Uiso   1.00
C86    C     0.34457   0.65613   0.15676   0.00000  Uiso   1.00
C87    C     0.28955   0.64383   0.17786   0.00000  Uiso   1.00
C88    C     0.27815   0.65320   0.13266   0.00000  Uiso   1.00
C89    C     0.25696   0.64231   0.14022   0.00000  Uiso   1.00
C90    C     0.24657   0.62181   0.19492   0.00000  Uiso   1.00
C91    C     0.25795   0.61245   0.24058   0.00000  Uiso   1.00
C92    C     0.27913   0.62327   0.23122   0.00000  Uiso   1.00
C93    C     0.22400   0.61028   0.20587   0.00000  Uiso   1.00
C94    C     0.21319   0.61988   0.26415   0.00000  Uiso   1.00
C95    C     0.19203   0.60899   0.27643   0.00000  Uiso   1.00
C96    C     0.18119   0.58828   0.23366   0.00000  Uiso   1.00
C97    C     0.19187   0.57865   0.17224   0.00000  Uiso   1.00
C98    C     0.21304   0.58957   0.15850   0.00000  Uiso   1.00
C99    C     0.67775   0.32265   0.22735   0.00000  Uiso   1.00
C100   C     0.68855   0.34390   0.23329   0.00000  Uiso   1.00
C101   C     0.64523   0.28916   0.21790   0.00000  Uiso   1.00
C102   C     0.62459   0.27834   0.16640   0.00000  Uiso   1.00
C103   C     0.61402   0.25715   0.16221   0.00000  Uiso   1.00
C104   C     0.62373   0.24620   0.21095   0.00000  Uiso   1.00
C105   C     0.64434   0.25699   0.26256   0.00000  Uiso   1.00
C106   C     0.65497   0.27817   0.26524   0.00000  Uiso   1.00
C107   C     0.61242   0.22363   0.20909   0.00000  Uiso   1.00
C108   C     0.59188   0.21270   0.26321   0.00000  Uiso   1.00
C109   C     0.58135   0.19152   0.26343   0.00000  Uiso   1.00
C110   C     0.59108   0.18075   0.21214   0.00000  Uiso   1.00
C111   C     0.61157   0.19160   0.15521   0.00000  Uiso   1.00
C112   C     0.62207   0.21279   0.15387   0.00000  Uiso   1.00
O113   O     0.02553   0.54154   0.33383   0.00000  Uiso   1.00
O114   O     0.47555   0.45754   0.22480   0.00000  Uiso   1.00
C115   C     0.52084   0.96784   0.41444   0.00000  Uiso   1.00
C116   C     0.55492   0.02928   0.37911   0.00000  Uiso   1.00
C117   C     0.47845   0.99117   0.30147   0.00000  Uiso   1.00
C118   C     0.48671   0.97847   0.28406   0.00000  Uiso   1.00
C119   C     0.50785   0.98686   0.26893   0.00000  Uiso   1.00
C120   C     0.47342   0.95684   0.27758   0.00000  Uiso   1.00
C121   C     0.46249   0.93871   0.27114   0.00000  Uiso   1.00
C122   C     0.44966   0.91705   0.26246   0.00000  Uiso   1.00
C123   C     0.42852   0.90833   0.26466   0.00000  Uiso   1.00
C124   C     0.41608   0.88726   0.25498   0.00000  Uiso   1.00
C125   C     0.42467   0.87470   0.24292   0.00000  Uiso   1.00
C126   C     0.44594   0.88358   0.24096   0.00000  Uiso   1.00
C127   C     0.45834   0.90465   0.25068   0.00000  Uiso   1.00
C128   C     0.41125   0.85250   0.23216   0.00000  Uiso   1.00
C129   C     0.52095   0.50845   0.28607   0.00000  Uiso   1.00
C130   C     0.48767   0.47851   0.25097   0.00000  Uiso   1.00
C131   C     0.50882   0.48740   0.27147   0.00000  Uiso   1.00
C132   C     0.51817   0.47499   0.27360   0.00000  Uiso   1.00
C133   C     0.52579   0.46441   0.27471   0.00000  Uiso   1.00
C134   C     0.53467   0.45160   0.27508   0.00000  Uiso   1.00
C135   C     0.52217   0.43051   0.28173   0.00000  Uiso   1.00
C136   C     0.53073   0.41799   0.28005   0.00000  Uiso   1.00
C137   C     0.55189   0.42644   0.27176   0.00000  Uiso   1.00
C138   C     0.56437   0.44767   0.26558   0.00000  Uiso   1.00
C139   C     0.55577   0.46016   0.26721   0.00000  Uiso   1.00
C140   C     0.56055   0.41289   0.26869   0.00000  Uiso   1.00
N141   N     0.58008   0.42027   0.26425   0.00000  Uiso   1.00
N142   N     0.41882   0.84053   0.22493   0.00000  Uiso   1.00
C143   C     0.35620   0.64520   0.15007   0.00000  Uiso   1.00
C144   C     0.34665   0.62460   0.09846   0.00000  Uiso   1.00
C145   C     0.35754   0.61430   0.09400   0.00000  Uiso   1.00
C146   C     0.37824   0.62424   0.14253   0.00000  Uiso   1.00
C147   C     0.38781   0.64483   0.19378   0.00000  Uiso   1.00
C148   C     0.37698   0.65519   0.19674   0.00000  Uiso   1.00
C149   C     0.38975   0.61316   0.14167   0.00000  Uiso   1.00
C150   C     0.38032   0.59268   0.19651   0.00000  Uiso   1.00
C151   C     0.39122   0.58238   0.19848   0.00000  Uiso   1.00
C152   C     0.41176   0.59228   0.14831   0.00000  Uiso   1.00
C153   C     0.42123   0.61271   0.09069   0.00000  Uiso   1.00
C154   C     0.41030   0.62299   0.08742   0.00000  Uiso   1.00
C155   C     0.67760   0.35422   0.23511   0.00000  Uiso   1.00
C156   C     0.65632   0.34374   0.23120   0.00000  Uiso   1.00
C157   C     0.71113   0.35526   0.23889   0.00000  Uiso   1.00
C158   C     0.72228   0.34567   0.19174   0.00000  Uiso   1.00
C159   C     0.74348   0.35632   0.19784   0.00000  Uiso   1.00
C160   C     0.75414   0.37681   0.25273   0.00000  Uiso   1.00
C161   C     0.74303   0.38642   0.29986   0.00000  Uiso   1.00
C162   C     0.72184   0.37583   0.29225   0.00000  Uiso   1.00
C163   C     0.77672   0.38808   0.26214   0.00000  Uiso   1.00
C164   C     0.78736   0.37827   0.31912   0.00000  Uiso   1.00
C165   C     0.80854   0.38889   0.32841   0.00000  Uiso   1.00
C166   C     0.81958   0.40955   0.28423   0.00000  Uiso   1.00
C167   C     0.80905   0.41942   0.22488   0.00000  Uiso   1.00
C168   C     0.78786   0.40877   0.21399   0.00000  Uiso   1.00
O169   O     0.45776   0.48143   0.20836   0.00000  Uiso   1.00
O170   O     0.54153   0.01580   0.23760   0.00000  Uiso   1.00
C171   C     0.03559   0.55285   0.49933   0.00000  Uiso   1.00
C172   C     0.97593   0.52866   0.50732   0.00000  Uiso   1.00
C173   C     0.00841   0.48390   0.86284   0.00000  Uiso   1.00
C174   C     0.02100   0.50518   0.87494   0.00000  Uiso   1.00
C175   C     0.01233   0.51749   0.89672   0.00000  Uiso   1.00
C176   C     0.04271   0.51469   0.85543   0.00000  Uiso   1.00
C177   C     0.06086   0.52254   0.83871   0.00000  Uiso   1.00
C178   C     0.08250   0.53171   0.81859   0.00000  Uiso   1.00
C179   C     0.09142   0.51949   0.81036   0.00000  Uiso   1.00
C180   C     0.11245   0.52834   0.79126   0.00000  Uiso   1.00
C181   C     0.12480   0.54950   0.78008   0.00000  Uiso   1.00
C182   C     0.11573   0.56170   0.78805   0.00000  Uiso   1.00
C183   C     0.09468   0.55281   0.80717   0.00000  Uiso   1.00
C184   C     0.14698   0.55845   0.76102   0.00000  Uiso   1.00
C185   C     0.48893   0.01246   0.76763   0.00000  Uiso   1.00
C186   C     0.51882   0.00881   0.80072   0.00000  Uiso   1.00
C187   C     0.51025   0.02125   0.78071   0.00000  Uiso   1.00
C188   C     0.52355   0.04284   0.76514   0.00000  Uiso   1.00
C189   C     0.53462   0.06091   0.75253   0.00000  Uiso   1.00
C190   C     0.54769   0.08250   0.73853   0.00000  Uiso   1.00
C191   C     0.56866   0.09077   0.71734   0.00000  Uiso   1.00
C192   C     0.58137   0.11180   0.70631   0.00000  Uiso   1.00
C193   C     0.57324   0.12476   0.71626   0.00000  Uiso   1.00
C194   C     0.55212   0.11632   0.73661   0.00000  Uiso   1.00
C195   C     0.53945   0.09530   0.74773   0.00000  Uiso   1.00
C196   C     0.58696   0.14692   0.70674   0.00000  Uiso   1.00
N197   N     0.57981   0.15922   0.71819   0.00000  Uiso   1.00
N198   N     0.15886   0.57800   0.75320   0.00000  Uiso   1.00
C199   C     0.32208   0.67698   0.67280   0.00000  Uiso   1.00
C200   C     0.31150   0.65572   0.66996   0.00000  Uiso   1.00
C201   C     0.35440   0.71068   0.67269   0.00000  Uiso   1.00
C202   C     0.37512   0.72195   0.62486   0.00000  Uiso   1.00
C203   C     0.38551   0.74312   0.63007   0.00000  Uiso   1.00
C204   C     0.37552   0.75365   0.68470   0.00000  Uiso   1.00
C205   C     0.35483   0.74243   0.73276   0.00000  Uiso   1.00
C206   C     0.34439   0.72125   0.72606   0.00000  Uiso   1.00
C207   C     0.38665   0.77620   0.69266   0.00000  Uiso   1.00
C208   C     0.40713   0.78702   0.74894   0.00000  Uiso   1.00
C209   C     0.41752   0.80818   0.75718   0.00000  Uiso   1.00
C210   C     0.40768   0.81901   0.71252   0.00000  Uiso   1.00
C211   C     0.38726   0.80831   0.65366   0.00000  Uiso   1.00
C212   C     0.37690   0.78714   0.64389   0.00000  Uiso   1.00
C213   C     0.64537   0.32269   0.72528   0.00000  Uiso   1.00
C214   C     0.65591   0.31197   0.72300   0.00000  Uiso   1.00
C215   C     0.64425   0.35510   0.73476   0.00000  Uiso   1.00
C216   C     0.65388   0.37581   0.68709   0.00000  Uiso   1.00
C217   C     0.64316   0.38628   0.68989   0.00000  Uiso   1.00
C218   C     0.62256   0.37641   0.74206   0.00000  Uiso   1.00
C219   C     0.61294   0.35573   0.79038   0.00000  Uiso   1.00
C220   C     0.62361   0.34520   0.78593   0.00000  Uiso   1.00
C221   C     0.61118   0.38761   0.74650   0.00000  Uiso   1.00
C222   C     0.62084   0.40810   0.80156   0.00000  Uiso   1.00
C223   C     0.61014   0.41860   0.80545   0.00000  Uiso   1.00
C224   C     0.58954   0.40885   0.75776   0.00000  Uiso   1.00
C225   C     0.57981   0.38840   0.70064   0.00000  Uiso   1.00
C226   C     0.59055   0.37794   0.69508   0.00000  Uiso   1.00
O227   O     0.01639   0.47103   0.83059   0.00000  Uiso   1.00
O228   O     0.47967   0.02419   0.73577   0.00000  Uiso   1.00
C229   C     0.51422   0.52316   0.74974   0.00000  Uiso   1.00
C230   C     0.49287   0.51446   0.75445   0.00000  Uiso   1.00
C231   C     0.48041   0.49347   0.77394   0.00000  Uiso   1.00
C232   C     0.48347   0.52671   0.73103   0.00000  Uiso   1.00
C233   C     0.47574   0.53709   0.71229   0.00000  Uiso   1.00
C234   C     0.46676   0.54970   0.69152   0.00000  Uiso   1.00
C235   C     0.47917   0.57060   0.66434   0.00000  Uiso   1.00
C236   C     0.47054   0.58299   0.64828   0.00000  Uiso   1.00
C237   C     0.44941   0.57462   0.65918   0.00000  Uiso   1.00
C238   C     0.43700   0.55356   0.68514   0.00000  Uiso   1.00
C239   C     0.44567   0.54119   0.70129   0.00000  Uiso   1.00
C240   C     0.44073   0.58810   0.64549   0.00000  Uiso   1.00
C241   C     0.98719   0.47529   0.86600   0.00000  Uiso   1.00
C242   C     0.99129   0.50894   0.90008   0.00000  Uiso   1.00
C243   C     0.97864   0.48798   0.88148   0.00000  Uiso   1.00
C244   C     0.95704   0.47990   0.86879   0.00000  Uiso   1.00
C245   C     0.93896   0.47301   0.85783   0.00000  Uiso   1.00
C246   C     0.91734   0.46454   0.84456   0.00000  Uiso   1.00
C247   C     0.90895   0.47723   0.84722   0.00000  Uiso   1.00
C248   C     0.88791   0.46893   0.83431   0.00000  Uiso   1.00
C249   C     0.87507   0.44786   0.81866   0.00000  Uiso   1.00
C250   C     0.88364   0.43521   0.81596   0.00000  Uiso   1.00
C251   C     0.90466   0.44353   0.82880   0.00000  Uiso   1.00
C252   C     0.85291   0.43942   0.80549   0.00000  Uiso   1.00
N253   N     0.84070   0.41994   0.79679   0.00000  Uiso   1.00
N254   N     0.42124   0.58084   0.65753   0.00000  Uiso   1.00
C255   C     0.32264   0.64561   0.66188   0.00000  Uiso   1.00
C256   C     0.34391   0.65630   0.65653   0.00000  Uiso   1.00
C257   C     0.28894   0.64412   0.67729   0.00000  Uiso   1.00
C258   C     0.27754   0.65348   0.63229   0.00000  Uiso   1.00
C259   C     0.25635   0.64258   0.64019   0.00000  Uiso   1.00
C260   C     0.24597   0.62208   0.69491   0.00000  Uiso   1.00
C261   C     0.25736   0.61271   0.73997   0.00000  Uiso   1.00
C262   C     0.27854   0.62354   0.73039   0.00000  Uiso   1.00
C263   C     0.22341   0.61054   0.70665   0.00000  Uiso   1.00
C264   C     0.21259   0.62011   0.76567   0.00000  Uiso   1.00
C265   C     0.19143   0.60921   0.77814   0.00000  Uiso   1.00
C266   C     0.18060   0.58851   0.73498   0.00000  Uiso   1.00
C267   C     0.19129   0.57890   0.67313   0.00000  Uiso   1.00
C268   C     0.21245   0.58983   0.65914   0.00000  Uiso   1.00
C269   C     0.68793   0.34419   0.73384   0.00000  Uiso   1.00
C270   C     0.64480   0.28941   0.71739   0.00000  Uiso   1.00
C271   C     0.62418   0.27847   0.66562   0.00000  Uiso   1.00
C272   C     0.61374   0.25728   0.66134   0.00000  Uiso   1.00
C273   C     0.62358   0.24645   0.71029   0.00000  Uiso   1.00
C274   C     0.64418   0.25736   0.76202   0.00000  Uiso   1.00
C275   C     0.65467   0.27854   0.76472   0.00000  Uiso   1.00
C276   C     0.61240   0.22388   0.70884   0.00000  Uiso   1.00
C277   C     0.59186   0.21286   0.76288   0.00000  Uiso   1.00
C278   C     0.58145   0.19168   0.76331   0.00000  Uiso   1.00
C279   C     0.59129   0.18100   0.71235   0.00000  Uiso   1.00
C280   C     0.61177   0.19193   0.65579   0.00000  Uiso   1.00
C281   C     0.62218   0.21313   0.65420   0.00000  Uiso   1.00
O282   O     0.52709   0.54392   0.71316   0.00000  Uiso   1.00
O283   O     0.97513   0.45428   0.83644   0.00000  Uiso   1.00
C284   C     0.47662   0.99123   0.76785   0.00000  Uiso   1.00
C285   C     0.48547   0.97891   0.78410   0.00000  Uiso   1.00
C286   C     0.50650   0.98777   0.80272   0.00000  Uiso   1.00
C287   C     0.47306   0.95717   0.77755   0.00000  Uiso   1.00
C288   C     0.46255   0.93898   0.77111   0.00000  Uiso   1.00
C289   C     0.44986   0.91731   0.76251   0.00000  Uiso   1.00
C290   C     0.42872   0.90853   0.76557   0.00000  Uiso   1.00
C291   C     0.41633   0.88747   0.75594   0.00000  Uiso   1.00
C292   C     0.42495   0.87495   0.74319   0.00000  Uiso   1.00
C293   C     0.44623   0.88388   0.74036   0.00000  Uiso   1.00
C294   C     0.45860   0.90496   0.74992   0.00000  Uiso   1.00
C295   C     0.41154   0.85276   0.73271   0.00000  Uiso   1.00
C296   C     0.52272   0.51038   0.75910   0.00000  Uiso   1.00
C297   C     0.48888   0.48096   0.78282   0.00000  Uiso   1.00
C298   C     0.50991   0.48928   0.77247   0.00000  Uiso   1.00
C299   C     0.51832   0.47603   0.77502   0.00000  Uiso   1.00
C300   C     0.52548   0.46504   0.77583   0.00000  Uiso   1.00
C301   C     0.53417   0.45205   0.77557   0.00000  Uiso   1.00
C302   C     0.52157   0.43096   0.78142   0.00000  Uiso   1.00
C303   C     0.53004   0.41835   0.77938   0.00000  Uiso   1.00
C304   C     0.55119   0.42669   0.77143   0.00000  Uiso   1.00
C305   C     0.56375   0.44791   0.76596   0.00000  Uiso   1.00
C306   C     0.55526   0.46049   0.76801   0.00000  Uiso   1.00
C307   C     0.55977   0.41307   0.76791   0.00000  Uiso   1.00
N308   N     0.57930   0.42040   0.76416   0.00000  Uiso   1.00
N309   N     0.41907   0.84076   0.72463   0.00000  Uiso   1.00
C310   C     0.35403   0.67754   0.65981   0.00000  Uiso   1.00
C311   C     0.34336   0.68812   0.66784   0.00000  Uiso   1.00
C312   C     0.35549   0.64533   0.64971   0.00000  Uiso   1.00
C313   C     0.34589   0.62473   0.59784   0.00000  Uiso   1.00
C314   C     0.35674   0.61438   0.59350   0.00000  Uiso   1.00
C315   C     0.37742   0.62428   0.64261   0.00000  Uiso   1.00
C316   C     0.38703   0.64486   0.69398   0.00000  Uiso   1.00
C317   C     0.37625   0.65527   0.69664   0.00000  Uiso   1.00
C318   C     0.38887   0.61315   0.64223   0.00000  Uiso   1.00
C319   C     0.37941   0.59267   0.69723   0.00000  Uiso   1.00
C320   C     0.39027   0.58234   0.69939   0.00000  Uiso   1.00
C321   C     0.41081   0.59220   0.64900   0.00000  Uiso   1.00
C322   C     0.42030   0.61263   0.59121   0.00000  Uiso   1.00
C323   C     0.40941   0.62295   0.58805   0.00000  Uiso   1.00
C324   C     0.67694   0.35446   0.73578   0.00000  Uiso   1.00
C325   C     0.74284   0.35659   0.69797   0.00000  Uiso   1.00
C326   C     0.75352   0.37708   0.75286   0.00000  Uiso   1.00
C327   C     0.74243   0.38668   0.80066   0.00000  Uiso   1.00
C328   C     0.72123   0.37610   0.79328   0.00000  Uiso   1.00
C329   C     0.77610   0.38834   0.76146   0.00000  Uiso   1.00
C330   C     0.78673   0.37850   0.81774   0.00000  Uiso   1.00
C331   C     0.80792   0.38911   0.82686   0.00000  Uiso   1.00
C332   C     0.81895   0.40978   0.78308   0.00000  Uiso   1.00
C333   C     0.80844   0.41967   0.72409   0.00000  Uiso   1.00
C334   C     0.78725   0.40903   0.71341   0.00000  Uiso   1.00
O335   O     0.45567   0.98248   0.73956   0.00000  Uiso   1.00
O336   O     0.54374   0.51820   0.74114   0.00000  Uiso   1.00
C337   C     0.55625   0.53343   0.87533   0.00000  Uiso   1.00
C338   C     0.52659   0.55764   0.84852   0.00000  Uiso   1.00
C339   C     1.44448   0.97803   0.91179   0.00000  Uiso   1.00
C340   C     1.48295   1.03895   0.87743   0.00000  Uiso   1.00
C341   C     0.96065   1.44310   0.98115   0.00000  Uiso   1.00
C342   C     1.03002   1.47128   0.97141   0.00000  Uiso   1.00
H343   H     0.01581   0.47723   0.40534   0.00000  Uiso   1.00
H344   H     0.08223   0.50344   0.31790   0.00000  Uiso   1.00
H345   H     0.11918   0.51852   0.28331   0.00000  Uiso   1.00
H346   H     0.12582   0.57829   0.28025   0.00000  Uiso   1.00
H347   H     0.08895   0.56308   0.31511   0.00000  Uiso   1.00
H348   H     0.15351   0.54808   0.25630   0.00000  Uiso   1.00
H349   H     0.48436   0.02178   0.31074   0.00000  Uiso   1.00
H350   H     0.57552   0.08103   0.21052   0.00000  Uiso   1.00
H351   H     0.59761   0.11799   0.19154   0.00000  Uiso   1.00
H352   H     0.54509   0.12539   0.24417   0.00000  Uiso   1.00
H353   H     0.52315   0.08843   0.26318   0.00000  Uiso   1.00
H354   H     0.60287   0.15241   0.19730   0.00000  Uiso   1.00
H355   H     0.38383   0.71440   0.07985   0.00000  Uiso   1.00
H356   H     0.40160   0.75121   0.08717   0.00000  Uiso   1.00
H357   H     0.34685   0.74955   0.27894   0.00000  Uiso   1.00
H358   H     0.32884   0.71277   0.26543   0.00000  Uiso   1.00
H359   H     0.41518   0.77908   0.29017   0.00000  Uiso   1.00
H360   H     0.43317   0.81614   0.30200   0.00000  Uiso   1.00
H361   H     0.37911   0.81573   0.11101   0.00000  Uiso   1.00
H362   H     0.36130   0.77898   0.09419   0.00000  Uiso   1.00
H363   H     0.67036   0.38370   0.14329   0.00000  Uiso   1.00
H364   H     0.65168   0.40187   0.14644   0.00000  Uiso   1.00
H365   H     0.59798   0.34761   0.33589   0.00000  Uiso   1.00
H366   H     0.61641   0.32920   0.32616   0.00000  Uiso   1.00
H367   H     0.63737   0.41584   0.34501   0.00000  Uiso   1.00
H368   H     0.61864   0.43421   0.34914   0.00000  Uiso   1.00
H369   H     0.56491   0.38042   0.15558   0.00000  Uiso   1.00
H370   H     0.58351   0.36223   0.14661   0.00000  Uiso   1.00
H371   H     0.43409   0.47011   0.40191   0.00000  Uiso   1.00
H372   H     0.43852   0.49252   0.27599   0.00000  Uiso   1.00
H373   H     0.45517   0.49436   0.46670   0.00000  Uiso   1.00
H374   H     0.48145   0.44863   0.48642   0.00000  Uiso   1.00
H375   H     0.45887   0.43022   0.36551   0.00000  Uiso   1.00
H376   H     0.45915   0.45162   0.47724   0.00000  Uiso   1.00
H377   H     0.52187   0.53705   0.28556   0.00000  Uiso   1.00
H378   H     0.49609   0.57660   0.15656   0.00000  Uiso   1.00
H379   H     0.48133   0.59878   0.12727   0.00000  Uiso   1.00
H380   H     0.42132   0.54676   0.19494   0.00000  Uiso   1.00
H381   H     0.43620   0.52481   0.22427   0.00000  Uiso   1.00
H382   H     0.45206   0.60419   0.12810   0.00000  Uiso   1.00
H383   H     0.97879   0.46218   0.41141   0.00000  Uiso   1.00
H384   H     0.91886   0.49379   0.36150   0.00000  Uiso   1.00
H385   H     0.88185   0.47884   0.33834   0.00000  Uiso   1.00
H386   H     0.87512   0.41912   0.30345   0.00000  Uiso   1.00
H387   H     0.91211   0.43424   0.32636   0.00000  Uiso   1.00
H388   H     0.84753   0.44952   0.31010   0.00000  Uiso   1.00
H389   H     0.28557   0.66892   0.08839   0.00000  Uiso   1.00
H390   H     0.24872   0.64992   0.09988   0.00000  Uiso   1.00
H391   H     0.25052   0.59683   0.28765   0.00000  Uiso   1.00
H392   H     0.28735   0.61558   0.26961   0.00000  Uiso   1.00
H393   H     0.22107   0.63571   0.30462   0.00000  Uiso   1.00
H394   H     0.18402   0.61663   0.32327   0.00000  Uiso   1.00
H395   H     0.18405   0.56288   0.13068   0.00000  Uiso   1.00
H396   H     0.22079   0.58183   0.10720   0.00000  Uiso   1.00
H397   H     0.61660   0.28621   0.12645   0.00000  Uiso   1.00
H398   H     0.59830   0.24938   0.11754   0.00000  Uiso   1.00
H399   H     0.65221   0.24907   0.30500   0.00000  Uiso   1.00
H400   H     0.67076   0.28590   0.30799   0.00000  Uiso   1.00
H401   H     0.58402   0.22050   0.30965   0.00000  Uiso   1.00
H402   H     0.56559   0.18341   0.30718   0.00000  Uiso   1.00
H403   H     0.61951   0.18396   0.10780   0.00000  Uiso   1.00
H404   H     0.63768   0.22068   0.10587   0.00000  Uiso   1.00
H405   H     0.52748   0.95812   0.38142   0.00000  Uiso   1.00
H406   H     0.50688   0.95879   0.49988   0.00000  Uiso   1.00
H407   H     0.53215   0.98114   0.49730   0.00000  Uiso   1.00
H408   H     0.56516   0.04425   0.31384   0.00000  Uiso   1.00
H409   H     0.56431   0.02306   0.43547   0.00000  Uiso   1.00
H410   H     0.54683   0.03144   0.49977   0.00000  Uiso   1.00
H411   H     0.46220   0.98482   0.31540   0.00000  Uiso   1.00
H412   H     0.42166   0.91781   0.27364   0.00000  Uiso   1.00
H413   H     0.39975   0.88076   0.25671   0.00000  Uiso   1.00
H414   H     0.45301   0.87430   0.23161   0.00000  Uiso   1.00
H415   H     0.47470   0.91127   0.24873   0.00000  Uiso   1.00
H416   H     0.39500   0.84643   0.23506   0.00000  Uiso   1.00
H417   H     0.53725   0.51540   0.30263   0.00000  Uiso   1.00
H418   H     0.50581   0.42375   0.28781   0.00000  Uiso   1.00
H419   H     0.52082   0.40170   0.28494   0.00000  Uiso   1.00
H420   H     0.58074   0.45461   0.25892   0.00000  Uiso   1.00
H421   H     0.55026   0.39669   0.27432   0.00000  Uiso   1.00
H422   H     0.33077   0.61644   0.05894   0.00000  Uiso   1.00
H423   H     0.34977   0.59859   0.04954   0.00000  Uiso   1.00
H424   H     0.40361   0.65288   0.23602   0.00000  Uiso   1.00
H425   H     0.38484   0.67096   0.23949   0.00000  Uiso   1.00
H426   H     0.36465   0.58469   0.24242   0.00000  Uiso   1.00
H427   H     0.38371   0.56667   0.24300   0.00000  Uiso   1.00
H428   H     0.43686   0.62079   0.04480   0.00000  Uiso   1.00
H429   H     0.41789   0.63857   0.03912   0.00000  Uiso   1.00
H430   H     0.71465   0.32995   0.14740   0.00000  Uiso   1.00
H431   H     0.75151   0.34854   0.15635   0.00000  Uiso   1.00
H432   H     0.75068   0.40204   0.34691   0.00000  Uiso   1.00
H433   H     0.71386   0.38371   0.33189   0.00000  Uiso   1.00
H434   H     0.77932   0.36246   0.36030   0.00000  Uiso   1.00
H435   H     0.81642   0.38107   0.37366   0.00000  Uiso   1.00
H436   H     0.81702   0.43516   0.18214   0.00000  Uiso   1.00
H437   H     0.78024   0.41667   0.16380   0.00000  Uiso   1.00
H438   H     0.04509   0.56907   0.46041   0.00000  Uiso   1.00
H439   H     0.04566   0.54767   0.56115   0.00000  Uiso   1.00
H440   H     0.02435   0.55155   0.60661   0.00000  Uiso   1.00
H441   H     0.96379   0.51449   0.57278   0.00000  Uiso   1.00
H442   H     0.96936   0.53834   0.47032   0.00000  Uiso   1.00
H443   H     0.98834   0.53699   0.61092   0.00000  Uiso   1.00
H444   H     0.02187   0.53379   0.90851   0.00000  Uiso   1.00
H445   H     0.08212   0.50314   0.81892   0.00000  Uiso   1.00
H446   H     0.11908   0.51865   0.78540   0.00000  Uiso   1.00
H447   H     0.12486   0.57806   0.77968   0.00000  Uiso   1.00
H448   H     0.08791   0.56239   0.81318   0.00000  Uiso   1.00
H449   H     0.15313   0.54835   0.75912   0.00000  Uiso   1.00
H450   H     0.53512   0.01540   0.81310   0.00000  Uiso   1.00
H451   H     0.57518   0.08098   0.70985   0.00000  Uiso   1.00
H452   H     0.59758   0.11795   0.69040   0.00000  Uiso   1.00
H453   H     0.54540   0.12592   0.74480   0.00000  Uiso   1.00
H454   H     0.52324   0.08905   0.76431   0.00000  Uiso   1.00
H455   H     0.60310   0.15261   0.69487   0.00000  Uiso   1.00
H456   H     0.38334   0.71443   0.58058   0.00000  Uiso   1.00
H457   H     0.40130   0.75124   0.58792   0.00000  Uiso   1.00
H458   H     0.34675   0.74998   0.77967   0.00000  Uiso   1.00
H459   H     0.32853   0.71318   0.76625   0.00000  Uiso   1.00
H460   H     0.41506   0.77914   0.79048   0.00000  Uiso   1.00
H461   H     0.43324   0.81620   0.80194   0.00000  Uiso   1.00
H462   H     0.37935   0.81613   0.61049   0.00000  Uiso   1.00
H463   H     0.36135   0.77938   0.59415   0.00000  Uiso   1.00
H464   H     0.66967   0.38391   0.64441   0.00000  Uiso   1.00
H465   H     0.65097   0.40206   0.64756   0.00000  Uiso   1.00
H466   H     0.59724   0.34773   0.83548   0.00000  Uiso   1.00
H467   H     0.61571   0.32935   0.82609   0.00000  Uiso   1.00
H468   H     0.63660   0.41598   0.84520   0.00000  Uiso   1.00
H469   H     0.61786   0.43435   0.84892   0.00000  Uiso   1.00
H470   H     0.56414   0.38055   0.65536   0.00000  Uiso   1.00
H471   H     0.58277   0.36237   0.64628   0.00000  Uiso   1.00
H472   H     0.46405   0.48671   0.78019   0.00000  Uiso   1.00
H473   H     0.49551   0.57733   0.65636   0.00000  Uiso   1.00
H474   H     0.48039   0.59915   0.62805   0.00000  Uiso   1.00
H475   H     0.42066   0.54667   0.69422   0.00000  Uiso   1.00
H476   H     0.43594   0.52502   0.72257   0.00000  Uiso   1.00
H477   H     0.45105   0.60421   0.63056   0.00000  Uiso   1.00
H478   H     0.98486   0.51876   0.91447   0.00000  Uiso   1.00
H479   H     0.91865   0.49351   0.85933   0.00000  Uiso   1.00
H480   H     0.88166   0.47897   0.83670   0.00000  Uiso   1.00
H481   H     0.87414   0.41892   0.80376   0.00000  Uiso   1.00
H482   H     0.91101   0.43358   0.82633   0.00000  Uiso   1.00
H483   H     0.84707   0.44978   0.80848   0.00000  Uiso   1.00
H484   H     0.28496   0.66920   0.58818   0.00000  Uiso   1.00
H485   H     0.24809   0.65019   0.60033   0.00000  Uiso   1.00
H486   H     0.24994   0.59710   0.78698   0.00000  Uiso   1.00
H487   H     0.22048   0.63594   0.80635   0.00000  Uiso   1.00
H488   H     0.18342   0.61683   0.82535   0.00000  Uiso   1.00
H489   H     0.18348   0.56315   0.63106   0.00000  Uiso   1.00
H490   H     0.22020   0.58212   0.60730   0.00000  Uiso   1.00
H491   H     0.61610   0.28625   0.62564   0.00000  Uiso   1.00
H492   H     0.59803   0.24941   0.61654   0.00000  Uiso   1.00
H493   H     0.65214   0.24954   0.80464   0.00000  Uiso   1.00
H494   H     0.67045   0.28636   0.80765   0.00000  Uiso   1.00
H495   H     0.58392   0.22058   0.80902   0.00000  Uiso   1.00
H496   H     0.56569   0.18350   0.80688   0.00000  Uiso   1.00
H497   H     0.61980   0.18435   0.60908   0.00000  Uiso   1.00
H498   H     0.63779   0.22109   0.60649   0.00000  Uiso   1.00
H499   H     0.51342   0.97838   0.81753   0.00000  Uiso   1.00
H500   H     0.42181   0.91798   0.77525   0.00000  Uiso   1.00
H501   H     0.39999   0.88094   0.75839   0.00000  Uiso   1.00
H502   H     0.45332   0.87462   0.73040   0.00000  Uiso   1.00
H503   H     0.47495   0.91162   0.74715   0.00000  Uiso   1.00
H504   H     0.39529   0.84670   0.73664   0.00000  Uiso   1.00
H505   H     0.47899   0.46473   0.79707   0.00000  Uiso   1.00
H506   H     0.50522   0.42428   0.78715   0.00000  Uiso   1.00
H507   H     0.52006   0.40206   0.78366   0.00000  Uiso   1.00
H508   H     0.58011   0.45479   0.75957   0.00000  Uiso   1.00
H509   H     0.56514   0.47680   0.76321   0.00000  Uiso   1.00
H510   H     0.54944   0.39687   0.77252   0.00000  Uiso   1.00
H511   H     0.33002   0.61661   0.55803   0.00000  Uiso   1.00
H512   H     0.34895   0.59868   0.54887   0.00000  Uiso   1.00
H513   H     0.40282   0.65286   0.73664   0.00000  Uiso   1.00
H514   H     0.38414   0.67103   0.73958   0.00000  Uiso   1.00
H515   H     0.36372   0.58471   0.74302   0.00000  Uiso   1.00
H516   H     0.38274   0.56663   0.74399   0.00000  Uiso   1.00
H517   H     0.43591   0.62068   0.54487   0.00000  Uiso   1.00
H518   H     0.41703   0.63852   0.53960   0.00000  Uiso   1.00
H519   H     0.75086   0.34881   0.65595   0.00000  Uiso   1.00
H520   H     0.75010   0.40230   0.84781   0.00000  Uiso   1.00
H521   H     0.71325   0.38398   0.83321   0.00000  Uiso   1.00
H522   H     0.77870   0.36268   0.85873   0.00000  Uiso   1.00
H523   H     0.81579   0.38127   0.87176   0.00000  Uiso   1.00
H524   H     0.81643   0.43542   0.68180   0.00000  Uiso   1.00
H525   H     0.77962   0.41695   0.66372   0.00000  Uiso   1.00
H526   H     0.56597   0.54791   0.79989   0.00000  Uiso   1.00
H527   H     0.56618   0.52867   0.94676   0.00000  Uiso   1.00
H528   H     0.54740   0.53597   0.98647   0.00000  Uiso   1.00
H529   H     0.51657   0.54984   0.97143   0.00000  Uiso   1.00
H530   H     0.52133   0.56722   0.77808   0.00000  Uiso   1.00
H531   H     0.54218   0.56767   0.90280   0.00000  Uiso   1.00
H532   H     1.44642   0.96684   0.99697   0.00000  Uiso   1.00
H533   H     1.42813   0.97135   0.87794   0.00000  Uiso   1.00
H534   H     1.44939   0.99211   0.99523   0.00000  Uiso   1.00
H535   H     1.49072   1.05427   0.81253   0.00000  Uiso   1.00
H536   H     1.49216   1.03878   0.99872   0.00000  Uiso   1.00
H537   H     1.46803   1.03589   0.93283   0.00000  Uiso   1.00
H538   H     0.96363   1.43117   1.03571   0.00000  Uiso   1.00
H539   H     0.94516   1.43566   0.91955   0.00000  Uiso   1.00
H540   H     0.96125   1.45267   1.10247   0.00000  Uiso   1.00
H541   H     1.04502   1.47622   0.90554   0.00000  Uiso   1.00
H542   H     1.02398   1.45569   1.02734   0.00000  Uiso   1.00
H543   H     1.03210   1.48145   1.09247   0.00000  Uiso   1.00
C544   C     0.35462   0.67791   0.16238   0.00000  Uiso   1.00
C545   C     0.34333   0.68789   0.17032   0.00000  Uiso   1.00
C546   C     0.67731   0.32268   0.72528   0.00000  Uiso   1.00
C547   C     0.65581   0.34374   0.73384   0.00000  Uiso   1.00
C548   C     0.71085   0.35575   0.73476   0.00000  Uiso   1.00
C549   C     0.72193   0.34612   0.68709   0.00000  Uiso   1.00
H550   H     0.56528   0.47685   0.26318   0.00000  Uiso   1.00
H551   H     0.28682   0.61535   0.76625   0.00000  Uiso   1.00
H552   H     0.71424   0.33033   0.64441   0.00000  Uiso   1.00
loop_
_geom_bond_atom_site_label_1
_geom_bond_atom_site_label_2
_geom_bond_distance
_geom_bond_site_symmetry_2
_ccdc_geom_bond_type
C1     C2      1.396   .     D
C1     H343    1.082   .     S
C1     C71     1.394   1_455 S
C2     C3      1.408   .     S
C2     C4      1.439   .     S
C3     O113    1.400   .     S
C3     C72     1.406   1_455 D
C4     C5      1.204   .     T
C5     C6      1.437   .     S
C6     C7      1.398   .     D
C6     C11     1.397   .     S
C7     C8      1.398   .     S
C7     H344    1.082   .     S
C8     C9      1.402   .     D
C8     H345    1.082   .     S
C9     C10     1.406   .     S
C9     C12     1.476   .     S
C10    C11     1.397   .     D
C10    H346    1.081   .     S
C11    H347    1.083   .     S
C12    N26     1.298   .     D
C12    H348    1.081   .     S
C13    C15     1.399   .     D
C13    H349    1.083   .     S
C13    C117    1.393   1_545 S
C14    C15     1.413   .     S
C14    O170    1.405   .     S
C14    C119    1.404   1_545 D
C15    C16     1.438   .     S
C16    C17     1.203   .     T
C17    C18     1.436   .     S
C18    C19     1.399   .     D
C18    C23     1.398   .     S
C19    C20     1.396   .     S
C19    H350    1.082   .     S
C20    C21     1.402   .     D
C20    H351    1.082   .     S
C21    C22     1.407   .     S
C21    C24     1.474   .     S
C22    C23     1.397   .     D
C22    H352    1.081   .     S
C23    H353    1.083   .     S
C24    N25     1.299   .     D
C24    H354    1.081   .     S
N25    C110    1.436   .     S
N26    C96     1.437   .     S
C27    C28     1.399   .     D
C27    C545    1.364   .     D
C28    C85     1.400   .     S
C28    C87     1.487   .     S
C29    C30     1.407   .     D
C29    C34     1.407   .     S
C29    C545    1.486   .     S
C30    C31     1.395   .     S
C30    H355    1.082   .     S
C31    C32     1.405   .     D
C31    H356    1.082   .     S
C32    C33     1.405   .     S
C32    C35     1.486   .     S
C33    C34     1.395   .     D
C33    H357    1.082   .     S
C34    H358    1.082   .     S
C35    C36     1.406   .     D
C35    C40     1.407   .     S
C36    C37     1.395   .     S
C36    H359    1.081   .     S
C37    C38     1.398   .     D
C37    H360    1.082   .     S
C38    C39     1.407   .     S
C38    N142    1.435   .     S
C39    C40     1.396   .     D
C39    H361    1.079   .     S
C40    H362    1.082   .     S
C41    C42     1.400   .     S
C41    C156    1.399   .     S
C42    C99     1.402   .     D
C42    C101    1.486   .     S
C43    C44     1.406   .     D
C43    C48     1.407   .     S
C43    C156    1.485   .     S
C44    C45     1.396   .     S
C44    H363    1.082   .     S
C45    C46     1.406   .     D
C45    H364    1.081   .     S
C46    C47     1.404   .     S
C46    C49     1.488   .     S
C47    C48     1.396   .     D
C47    H365    1.082   .     S
C48    H366    1.081   .     S
C49    C50     1.405   .     D
C49    C54     1.407   .     S
C50    C51     1.396   .     S
C50    H367    1.082   .     S
C51    C52     1.399   .     D
C51    H368    1.082   .     S
C52    C53     1.406   .     S
C52    N141    1.436   .     S
C53    C54     1.396   .     D
C53    H369    1.080   .     S
C54    H370    1.081   .     S
O55    C115    1.425   .     S
O55    C119    1.399   .     S
O56    C72     1.401   .     S
O56    C172    1.426   .     S
C57    O169    1.430   .     S
C57    H371    1.108   .     S
C57    H372    1.108   .     S
C57    H373    1.111   .     S
C58    O114    1.425   .     S
C58    H374    1.111   .     S
C58    H375    1.108   .     S
C58    H376    1.111   .     S
C59    C60     1.400   .     D
C59    C129    1.394   .     S
C59    H377    1.082   .     S
C60    C61     1.412   .     S
C60    C62     1.439   .     S
C61    C130    1.404   .     D
C61    O169    1.405   .     S
C62    C63     1.204   .     T
C63    C64     1.436   .     S
C64    C65     1.398   .     D
C64    C69     1.399   .     S
C65    C66     1.397   .     S
C65    H378    1.084   .     S
C66    C67     1.405   .     D
C66    H379    1.081   .     S
C67    C68     1.406   .     S
C67    C70     1.475   .     S
C68    C69     1.396   .     D
C68    H380    1.083   .     S
C69    H381    1.082   .     S
C70    N84     1.300   .     D
C70    H382    1.079   .     S
C71    C73     1.397   .     D
C71    H383    1.082   .     S
C71    C1      1.394   1_655 S
C72    C73     1.407   .     S
C72    C3      1.406   1_655 D
C73    C74     1.439   .     S
C74    C75     1.205   .     T
C75    C76     1.437   .     S
C76    C77     1.398   .     D
C76    C81     1.397   .     S
C77    C78     1.397   .     S
C77    H384    1.082   .     S
C78    C79     1.402   .     D
C78    H385    1.082   .     S
C79    C80     1.406   .     S
C79    C82     1.476   .     S
C80    C81     1.398   .     D
C80    H386    1.081   .     S
C81    H387    1.082   .     S
C82    N83     1.298   .     D
C82    H388    1.081   .     S
N83    C166    1.437   .     S
N84    C152    1.437   .     S
C85    C86     1.402   .     D
C86    C143    1.486   .     S
C86    C544    1.436   .     S
C87    C88     1.407   .     D
C87    C92     1.405   .     S
C88    C89     1.396   .     S
C88    H389    1.082   .     S
C89    C90     1.404   .     D
C89    H390    1.082   .     S
C90    C91     1.405   .     S
C90    C93     1.488   .     S
C91    C92     1.396   .     D
C91    H391    1.081   .     S
C92    H392    1.082   .     S
C93    C94     1.406   .     D
C93    C98     1.405   .     S
C94    C95     1.396   .     S
C94    H393    1.081   .     S
C95    C96     1.397   .     D
C95    H394    1.082   .     S
C96    C97     1.407   .     S
C97    C98     1.398   .     D
C97    H395    1.079   .     S
C98    H396    1.082   .     S
C99    C100    1.400   .     D
C100   C155    1.401   .     S
C100   C157    1.487   .     S
C101   C102    1.407   .     D
C101   C106    1.406   .     S
C102   C103    1.396   .     S
C102   H397    1.082   .     S
C103   C104    1.404   .     D
C103   H398    1.082   .     S
C104   C105    1.406   .     S
C104   C107    1.486   .     S
C105   C106    1.395   .     D
C105   H399    1.082   .     S
C106   H400    1.083   .     S
C107   C108    1.406   .     D
C107   C112    1.405   .     S
C108   C109    1.395   .     S
C108   H401    1.082   .     S
C109   C110    1.398   .     D
C109   H402    1.083   .     S
C110   C111    1.409   .     S
C111   C112    1.395   .     D
C111   H403    1.079   .     S
C112   H404    1.082   .     S
O113   C171    1.426   .     S
O114   C130    1.399   .     S
C115   H405    1.108   .     S
C115   H406    1.111   .     S
C115   H407    1.111   .     S
C116   O170    1.429   .     S
C116   H408    1.108   .     S
C116   H409    1.109   .     S
C116   H410    1.110   .     S
C117   C118    1.396   .     D
C117   H411    1.083   .     S
C117   C13     1.393   1_565 S
C118   C119    1.406   .     S
C118   C120    1.437   .     S
C119   C14     1.404   1_565 D
C120   C121    1.203   .     T
C121   C122    1.436   .     S
C122   C123    1.399   .     D
C122   C127    1.398   .     S
C123   C124    1.397   .     S
C123   H412    1.082   .     S
C124   C125    1.403   .     D
C124   H413    1.083   .     S
C125   C126    1.407   .     S
C125   C128    1.474   .     S
C126   C127    1.396   .     D
C126   H414    1.082   .     S
C127   H415    1.084   .     S
C128   N142    1.298   .     D
C128   H416    1.082   .     S
C129   C131    1.395   .     D
C129   H417    1.083   .     S
C130   C131    1.406   .     S
C131   C132    1.438   .     S
C132   C133    1.204   .     T
C133   C134    1.436   .     S
C134   C135    1.397   .     D
C134   C139    1.399   .     S
C135   C136    1.396   .     S
C135   H418    1.083   .     S
C136   C137    1.404   .     D
C136   H419    1.082   .     S
C137   C138    1.406   .     S
C137   C140    1.474   .     S
C138   C139    1.397   .     D
C138   H420    1.083   .     S
C139   H550    1.103   .     S
C140   N141    1.299   .     D
C140   H421    1.080   .     S
C143   C144    1.406   .     D
C143   C148    1.408   .     S
C144   C145    1.396   .     S
C144   H422    1.082   .     S
C145   C146    1.406   .     D
C145   H423    1.081   .     S
C146   C147    1.404   .     S
C146   C149    1.488   .     S
C147   C148    1.396   .     D
C147   H424    1.082   .     S
C148   H425    1.081   .     S
C149   C150    1.404   .     D
C149   C154    1.407   .     S
C150   C151    1.396   .     S
C150   H426    1.082   .     S
C151   C152    1.398   .     D
C151   H427    1.082   .     S
C152   C153    1.407   .     S
C153   C154    1.397   .     D
C153   H428    1.079   .     S
C154   H429    1.081   .     S
C155   C156    1.402   .     D
C157   C158    1.407   .     D
C157   C162    1.406   .     S
C158   C159    1.397   .     S
C158   H430    1.082   .     S
C159   C160    1.404   .     D
C159   H431    1.082   .     S
C160   C161    1.406   .     S
C160   C163    1.488   .     S
C161   C162    1.396   .     D
C161   H432    1.081   .     S
C162   H433    1.081   .     S
C163   C164    1.406   .     S
C163   C168    1.405   .     D
C164   C165    1.396   .     D
C164   H434    1.081   .     S
C165   C166    1.397   .     S
C165   H435    1.082   .     S
C166   C167    1.407   .     D
C167   C168    1.397   .     S
C167   H436    1.080   .     S
C168   H437    1.082   .     S
C171   H438    1.108   .     S
C171   H439    1.111   .     S
C171   H440    1.109   .     S
C172   H441    1.110   .     S
C172   H442    1.108   .     S
C172   H443    1.109   .     S
C173   C174    1.412   .     D
C173   O227    1.404   .     S
C173   C241    1.406   1_455 S
C174   C175    1.397   .     S
C174   C176    1.440   .     S
C175   H444    1.082   .     S
C175   C242    1.394   1_455 D
C176   C177    1.205   .     T
C177   C178    1.437   .     S
C178   C179    1.399   .     D
C178   C183    1.397   .     S
C179   C180    1.397   .     S
C179   H445    1.082   .     S
C180   C181    1.402   .     D
C180   H446    1.082   .     S
C181   C182    1.407   .     S
C181   C184    1.476   .     S
C182   C183    1.398   .     D
C182   H447    1.081   .     S
C183   H448    1.083   .     S
C184   N198    1.298   .     D
C184   H449    1.081   .     S
C185   C187    1.414   .     D
C185   O228    1.403   .     S
C185   C284    1.404   1_545 S
C186   C187    1.398   .     S
C186   H450    1.083   .     S
C186   C286    1.392   1_545 D
C187   C188    1.439   .     S
C188   C189    1.203   .     T
C189   C190    1.435   .     S
C190   C191    1.399   .     D
C190   C195    1.398   .     S
C191   C192    1.397   .     S
C191   H451    1.082   .     S
C192   C193    1.403   .     D
C192   H452    1.083   .     S
C193   C194    1.407   .     S
C193   C196    1.474   .     S
C194   C195    1.396   .     D
C194   H453    1.082   .     S
C195   H454    1.083   .     S
C196   N197    1.298   .     D
C196   H455    1.081   .     S
N197   C279    1.435   .     S
N198   C266    1.438   .     S
C199   C200    1.400   .     D
C199   C311    1.402   .     D
C200   C255    1.401   .     S
C200   C257    1.487   .     S
C201   C202    1.407   .     D
C201   C206    1.407   .     S
C201   C311    1.486   .     S
C202   C203    1.395   .     S
C202   H456    1.083   .     S
C203   C204    1.405   .     D
C203   H457    1.082   .     S
C204   C205    1.406   .     S
C204   C207    1.486   .     S
C205   C206    1.395   .     D
C205   H458    1.081   .     S
C206   H459    1.082   .     S
C207   C208    1.407   .     D
C207   C212    1.406   .     S
C208   C209    1.395   .     S
C208   H460    1.082   .     S
C209   C210    1.398   .     D
C209   H461    1.082   .     S
C210   C211    1.408   .     S
C210   N309    1.435   .     S
C211   C212    1.396   .     D
C211   H462    1.080   .     S
C212   H463    1.083   .     S
C213   C214    1.400   .     S
C213   C547    1.387   .     S
C214   C270    1.486   .     S
C214   C546    1.409   .     D
C215   C216    1.406   .     D
C215   C220    1.407   .     S
C215   C547    1.509   .     S
C216   C217    1.395   .     S
C216   H464    1.083   .     S
C217   C218    1.406   .     D
C217   H465    1.081   .     S
C218   C219    1.405   .     S
C218   C221    1.487   .     S
C219   C220    1.396   .     D
C219   H466    1.082   .     S
C220   H467    1.082   .     S
C221   C222    1.405   .     D
C221   C226    1.407   .     S
C222   C223    1.396   .     S
C222   H468    1.083   .     S
C223   C224    1.398   .     D
C223   H469    1.082   .     S
C224   C225    1.406   .     S
C224   N308    1.436   .     S
C225   C226    1.397   .     D
C225   H470    1.080   .     S
C226   H471    1.082   .     S
O227   C342    1.430   1_445 S
O228   C340    1.430   1_445 S
C229   C230    1.414   .     D
C229   O282    1.404   .     S
C229   C296    1.412   .     S
C230   C231    1.397   .     S
C230   C232    1.439   .     S
C231   C297    1.391   .     D
C231   H472    1.084   .     S
C232   C233    1.204   .     T
C233   C234    1.436   .     S
C234   C235    1.397   .     D
C234   C239    1.399   .     S
C235   C236    1.396   .     S
C235   H473    1.083   .     S
C236   C237    1.403   .     D
C236   H474    1.082   .     S
C237   C238    1.406   .     S
C237   C240    1.474   .     S
C238   C239    1.397   .     D
C238   H475    1.082   .     S
C239   H476    1.083   .     S
C240   N254    1.300   .     D
C240   H477    1.080   .     S
C241   C243    1.412   .     D
C241   O283    1.404   .     S
C241   C173    1.406   1_655 S
C242   C243    1.396   .     S
C242   H478    1.082   .     S
C242   C175    1.394   1_655 D
C243   C244    1.440   .     S
C244   C245    1.204   .     T
C245   C246    1.438   .     S
C246   C247    1.398   .     D
C246   C251    1.398   .     S
C247   C248    1.399   .     S
C247   H479    1.082   .     S
C248   C249    1.403   .     D
C248   H480    1.082   .     S
C249   C250    1.406   .     S
C249   C252    1.476   .     S
C250   C251    1.397   .     D
C250   H481    1.081   .     S
C251   H482    1.082   .     S
C252   N253    1.298   .     D
C252   H483    1.081   .     S
N253   C332    1.436   .     S
N254   C321    1.436   .     S
C255   C256    1.401   .     D
C256   C310    1.399   .     S
C256   C312    1.486   .     S
C257   C258    1.406   .     D
C257   C262    1.406   .     S
C258   C259    1.397   .     S
C258   H484    1.082   .     S
C259   C260    1.404   .     D
C259   H485    1.083   .     S
C260   C261    1.406   .     S
C260   C263    1.488   .     S
C261   C262    1.396   .     D
C261   H486    1.081   .     S
C262   H551    1.114   .     S
C263   C264    1.407   .     D
C263   C268    1.405   .     S
C264   C265    1.396   .     S
C264   H487    1.081   .     S
C265   C266    1.397   .     D
C265   H488    1.082   .     S
C266   C267    1.407   .     S
C267   C268    1.397   .     D
C267   H489    1.079   .     S
C268   H490    1.082   .     S
C269   C324    1.400   .     D
C269   C546    1.418   .     S
C269   C548    1.509   .     S
C270   C271    1.407   .     D
C270   C275    1.406   .     S
C271   C272    1.396   .     S
C271   H491    1.082   .     S
C272   C273    1.405   .     D
C272   H492    1.082   .     S
C273   C274    1.406   .     S
C273   C276    1.486   .     S
C274   C275    1.395   .     D
C274   H493    1.082   .     S
C275   H494    1.082   .     S
C276   C277    1.406   .     D
C276   C281    1.406   .     S
C277   C278    1.395   .     S
C277   H495    1.081   .     S
C278   C279    1.399   .     D
C278   H496    1.083   .     S
C279   C280    1.407   .     S
C280   C281    1.396   .     D
C280   H497    1.080   .     S
C281   H498    1.082   .     S
O282   C338    1.430   .     S
O283   C341    1.430   1_545 S
C284   C285    1.405   .     D
C284   O335    1.400   .     S
C284   C185    1.404   1_565 S
C285   C286    1.397   .     S
C285   C287    1.437   .     S
C286   H499    1.083   .     S
C286   C186    1.392   1_565 D
C287   C288    1.203   .     T
C288   C289    1.435   .     S
C289   C290    1.399   .     D
C289   C294    1.398   .     S
C290   C291    1.396   .     S
C290   H500    1.084   .     S
C291   C292    1.403   .     D
C291   H501    1.083   .     S
C292   C293    1.407   .     S
C292   C295    1.474   .     S
C293   C294    1.397   .     D
C293   H502    1.082   .     S
C294   H503    1.083   .     S
C295   N309    1.298   .     D
C295   H504    1.082   .     S
C296   C298    1.403   .     D
C296   O336    1.405   .     S
C297   C298    1.397   .     S
C297   H505    1.082   .     S
C298   C299    1.438   .     S
C299   C300    1.204   .     T
C300   C301    1.437   .     S
C301   C302    1.398   .     D
C301   C306    1.399   .     S
C302   C303    1.397   .     S
C302   H506    1.083   .     S
C303   C304    1.404   .     D
C303   H507    1.082   .     S
C304   C305    1.406   .     S
C304   C307    1.474   .     S
C305   C306    1.396   .     D
C305   H508    1.083   .     S
C306   H509    1.082   .     S
C307   N308    1.299   .     D
C307   H510    1.081   .     S
C310   C311    1.400   .     S
C312   C313    1.406   .     D
C312   C317    1.407   .     S
C313   C314    1.396   .     S
C313   H511    1.082   .     S
C314   C315    1.406   .     D
C314   H512    1.081   .     S
C315   C316    1.404   .     S
C315   C318    1.487   .     S
C316   C317    1.395   .     D
C316   H513    1.083   .     S
C317   H514    1.081   .     S
C318   C319    1.405   .     D
C318   C323    1.406   .     S
C319   C320    1.395   .     S
C319   H515    1.083   .     S
C320   C321    1.399   .     D
C320   H516    1.082   .     S
C321   C322    1.407   .     S
C322   C323    1.397   .     D
C322   H517    1.079   .     S
C323   H518    1.081   .     S
C324   C547    1.391   .     D
C325   C326    1.404   .     D
C325   H519    1.082   .     S
C325   C549    1.379   .     S
C326   C327    1.405   .     S
C326   C329    1.488   .     S
C327   C328    1.397   .     D
C327   H520    1.081   .     S
C328   H521    1.082   .     S
C328   C548    1.402   .     S
C329   C330    1.406   .     S
C329   C334    1.405   .     D
C330   C331    1.397   .     D
C330   H522    1.081   .     S
C331   C332    1.397   .     S
C331   H523    1.082   .     S
C332   C333    1.407   .     D
C333   C334    1.397   .     S
C333   H524    1.079   .     S
C334   H525    1.082   .     S
O335   C339    1.425   1_455 S
O336   C337    1.429   .     S
C337   H526    1.108   .     S
C337   H527    1.109   .     S
C337   H528    1.112   .     S
C338   H529    1.111   .     S
C338   H530    1.109   .     S
C338   H531    1.109   .     S
C339   H532    1.111   .     S
C339   H533    1.109   .     S
C339   H534    1.111   .     S
C339   O335    1.425   1_655 S
C340   H535    1.108   .     S
C340   H536    1.111   .     S
C340   H537    1.109   .     S
C340   O228    1.430   1_665 S
C341   H538    1.108   .     S
C341   H539    1.109   .     S
C341   H540    1.110   .     S
C341   O283    1.430   1_565 S
C342   H541    1.109   .     S
C342   H542    1.108   .     S
C342   H543    1.110   .     S
C342   O227    1.430   1_665 S
C544   C545    1.403   .     S
C548   C549    1.406   .     D
C549   H552    1.083   .     S
