data_945
_audit_creation_date              2023-09-08
_audit_creation_method            'Materials Studio'
_symmetry_space_group_name_H-M    'P1'
_symmetry_Int_Tables_number       1
_symmetry_cell_setting            triclinic
loop_
_symmetry_equiv_pos_as_xyz
  x,y,z
_cell_length_a                    81.8983
_cell_length_b                    81.8983
_cell_length_c                    7.2497
_cell_angle_alpha                 90.0000
_cell_angle_beta                  90.0000
_cell_angle_gamma                 120.0000
loop_
_atom_site_label
_atom_site_type_symbol
_atom_site_fract_x
_atom_site_fract_y
_atom_site_fract_z
_atom_site_U_iso_or_equiv
_atom_site_adp_type
_atom_site_occupancy
C1     C     0.00820   0.48926   0.22619   0.00000  Uiso   1.00
C2     C     0.01959   0.50793   0.29223   0.00000  Uiso   1.00
C3     C     0.01100   0.51845   0.33995   0.00000  Uiso   1.00
C4     C     0.04052   0.51710   0.30474   0.00000  Uiso   1.00
C5     C     0.04925   0.50799   0.38831   0.00000  Uiso   1.00
C6     C     0.06892   0.51646   0.39164   0.00000  Uiso   1.00
C7     C     0.08033   0.53459   0.31747   0.00000  Uiso   1.00
C8     C     0.07159   0.54417   0.24448   0.00000  Uiso   1.00
C9     C     0.05199   0.53552   0.23854   0.00000  Uiso   1.00
C10    C     0.10121   0.54359   0.31835   0.00000  Uiso   1.00
C11    C     0.10996   0.53285   0.28522   0.00000  Uiso   1.00
C12    C     0.12959   0.54127   0.28887   0.00000  Uiso   1.00
C13    C     0.14089   0.56061   0.32481   0.00000  Uiso   1.00
C14    C     0.13222   0.57144   0.35580   0.00000  Uiso   1.00
C15    C     0.11259   0.56302   0.35265   0.00000  Uiso   1.00
C16    C     0.16157   0.56910   0.33172   0.00000  Uiso   1.00
C17    C     0.49302   0.01162   0.21356   0.00000  Uiso   1.00
C18    C     0.51910   0.00843   0.32929   0.00000  Uiso   1.00
C19    C     0.51207   0.02001   0.27012   0.00000  Uiso   1.00
C20    C     0.52498   0.04080   0.26538   0.00000  Uiso   1.00
C21    C     0.54329   0.04846   0.19350   0.00000  Uiso   1.00
C22    C     0.55542   0.06796   0.18673   0.00000  Uiso   1.00
C23    C     0.54946   0.08030   0.25145   0.00000  Uiso   1.00
C24    C     0.53139   0.07264   0.32978   0.00000  Uiso   1.00
C25    C     0.51947   0.05312   0.33974   0.00000  Uiso   1.00
C26    C     0.59830   0.16127   0.21633   0.00000  Uiso   1.00
C27    C     0.58572   0.14060   0.22107   0.00000  Uiso   1.00
C28    C     0.56633   0.13232   0.18452   0.00000  Uiso   1.00
C29    C     0.55462   0.11277   0.19306   0.00000  Uiso   1.00
C30    C     0.56203   0.10106   0.23852   0.00000  Uiso   1.00
C31    C     0.58147   0.10937   0.27284   0.00000  Uiso   1.00
C32    C     0.59318   0.12894   0.26435   0.00000  Uiso   1.00
N33    N     0.41470   0.82754   0.35251   0.00000  Uiso   1.00
N34    N     0.32387   0.67629   0.39804   0.00000  Uiso   1.00
C35    C     0.31412   0.65714   0.39811   0.00000  Uiso   1.00
C36    C     0.35354   0.70674   0.39589   0.00000  Uiso   1.00
C37    C     0.37277   0.71679   0.44184   0.00000  Uiso   1.00
C38    C     0.38270   0.73648   0.43902   0.00000  Uiso   1.00
C39    C     0.37369   0.74659   0.38818   0.00000  Uiso   1.00
C40    C     0.35445   0.73649   0.34150   0.00000  Uiso   1.00
C41    C     0.34447   0.71680   0.34644   0.00000  Uiso   1.00
C42    C     0.38427   0.76756   0.38280   0.00000  Uiso   1.00
C43    C     0.40321   0.77745   0.32517   0.00000  Uiso   1.00
C44    C     0.41303   0.79713   0.31792   0.00000  Uiso   1.00
C45    C     0.40411   0.80733   0.36445   0.00000  Uiso   1.00
C46    C     0.38530   0.79756   0.42560   0.00000  Uiso   1.00
C47    C     0.37551   0.77788   0.43472   0.00000  Uiso   1.00
N48    N     0.58074   0.40837   0.18053   0.00000  Uiso   1.00
C49    C     0.59071   0.39806   0.17400   0.00000  Uiso   1.00
N50    N     0.64760   0.32302   0.14812   0.00000  Uiso   1.00
C51    C     0.65785   0.31413   0.14806   0.00000  Uiso   1.00
C52    C     0.64500   0.35173   0.15009   0.00000  Uiso   1.00
C53    C     0.65341   0.37090   0.19661   0.00000  Uiso   1.00
C54    C     0.64272   0.37989   0.20118   0.00000  Uiso   1.00
C55    C     0.62341   0.36998   0.15731   0.00000  Uiso   1.00
C56    C     0.61505   0.35081   0.10955   0.00000  Uiso   1.00
C57    C     0.62569   0.34177   0.10684   0.00000  Uiso   1.00
C58    C     0.61207   0.37958   0.16200   0.00000  Uiso   1.00
C59    C     0.61997   0.39847   0.10572   0.00000  Uiso   1.00
C60    C     0.60941   0.40757   0.11264   0.00000  Uiso   1.00
C61    C     0.58268   0.37913   0.23032   0.00000  Uiso   1.00
C62    C     0.59328   0.37003   0.22416   0.00000  Uiso   1.00
O63    O     0.52002   0.53678   0.14242   0.00000  Uiso   1.00
O64    O     0.53526   0.51283   0.11265   0.00000  Uiso   1.00
C65    C     0.53445   0.55162   0.24981   0.00000  Uiso   1.00
C66    C     0.55248   0.52486   0.20724   0.00000  Uiso   1.00
H67    H     0.01939   0.53277   0.38978   0.00000  Uiso   1.00
H68    H     0.04093   0.49461   0.45679   0.00000  Uiso   1.00
H69    H     0.07520   0.50905   0.45722   0.00000  Uiso   1.00
H70    H     0.07988   0.55812   0.18570   0.00000  Uiso   1.00
H71    H     0.04582   0.54310   0.17700   0.00000  Uiso   1.00
H72    H     0.10162   0.51794   0.25483   0.00000  Uiso   1.00
H73    H     0.13597   0.53266   0.26339   0.00000  Uiso   1.00
H74    H     0.14056   0.58638   0.38495   0.00000  Uiso   1.00
H75    H     0.10634   0.57167   0.38140   0.00000  Uiso   1.00
H76    H     0.16752   0.56000   0.31424   0.00000  Uiso   1.00
H77    H     0.53366   0.01450   0.37173   0.00000  Uiso   1.00
H78    H     0.54806   0.03937   0.13791   0.00000  Uiso   1.00
H79    H     0.56920   0.07336   0.12489   0.00000  Uiso   1.00
H80    H     0.52668   0.08173   0.38828   0.00000  Uiso   1.00
H81    H     0.50617   0.04767   0.41089   0.00000  Uiso   1.00
H82    H     0.61314   0.16685   0.24289   0.00000  Uiso   1.00
H83    H     0.56017   0.14093   0.14925   0.00000  Uiso   1.00
H84    H     0.53978   0.10678   0.16240   0.00000  Uiso   1.00
H85    H     0.58758   0.10078   0.31042   0.00000  Uiso   1.00
H86    H     0.60806   0.13499   0.29363   0.00000  Uiso   1.00
H87    H     0.38011   0.70944   0.48248   0.00000  Uiso   1.00
H88    H     0.39739   0.74379   0.47948   0.00000  Uiso   1.00
H89    H     0.34715   0.74377   0.29767   0.00000  Uiso   1.00
H90    H     0.32971   0.70947   0.30813   0.00000  Uiso   1.00
H91    H     0.41035   0.76999   0.28177   0.00000  Uiso   1.00
H92    H     0.42755   0.80448   0.27181   0.00000  Uiso   1.00
H93    H     0.37822   0.80503   0.47036   0.00000  Uiso   1.00
H94    H     0.36116   0.77078   0.48558   0.00000  Uiso   1.00
H95    H     0.66820   0.37893   0.23272   0.00000  Uiso   1.00
H96    H     0.64955   0.39454   0.24246   0.00000  Uiso   1.00
H97    H     0.60031   0.34283   0.07152   0.00000  Uiso   1.00
H98    H     0.61883   0.32703   0.06859   0.00000  Uiso   1.00
H99    H     0.63426   0.40617   0.05361   0.00000  Uiso   1.00
H100   H     0.61580   0.42212   0.06853   0.00000  Uiso   1.00
H101   H     0.56847   0.37131   0.28287   0.00000  Uiso   1.00
H102   H     0.58687   0.35562   0.27258   0.00000  Uiso   1.00
H103   H     0.53116   0.56315   0.26427   0.00000  Uiso   1.00
H104   H     0.54805   0.55761   0.17558   0.00000  Uiso   1.00
H105   H     0.53594   0.54696   0.38994   0.00000  Uiso   1.00
H106   H     0.56035   0.53834   0.13119   0.00000  Uiso   1.00
H107   H     0.56140   0.51820   0.20690   0.00000  Uiso   1.00
H108   H     0.55028   0.52766   0.35269   0.00000  Uiso   1.00
C109   C     0.00831   0.49943   0.74937   0.00000  Uiso   1.00
C110   C     0.01994   0.51896   0.77491   0.00000  Uiso   1.00
C111   C     0.01124   0.53018   0.79187   0.00000  Uiso   1.00
C112   C     0.04090   0.52700   0.77702   0.00000  Uiso   1.00
C113   C     0.04857   0.51647   0.85332   0.00000  Uiso   1.00
C114   C     0.06799   0.52364   0.85965   0.00000  Uiso   1.00
C115   C     0.08045   0.54170   0.79149   0.00000  Uiso   1.00
C116   C     0.07295   0.55209   0.70976   0.00000  Uiso   1.00
C117   C     0.05344   0.54468   0.69915   0.00000  Uiso   1.00
C118   C     0.10114   0.54956   0.80530   0.00000  Uiso   1.00
C119   C     0.10904   0.53793   0.77881   0.00000  Uiso   1.00
C120   C     0.12850   0.54532   0.79115   0.00000  Uiso   1.00
C121   C     0.14048   0.56449   0.82929   0.00000  Uiso   1.00
C122   C     0.13265   0.57614   0.85728   0.00000  Uiso   1.00
C123   C     0.11317   0.56873   0.84577   0.00000  Uiso   1.00
C124   C     0.16102   0.57203   0.83819   0.00000  Uiso   1.00
C125   C     0.50233   0.01117   0.74014   0.00000  Uiso   1.00
C126   C     0.53032   0.00863   0.78486   0.00000  Uiso   1.00
C127   C     0.52200   0.02003   0.75749   0.00000  Uiso   1.00
C128   C     0.53338   0.04108   0.74394   0.00000  Uiso   1.00
C129   C     0.55123   0.05028   0.65892   0.00000  Uiso   1.00
C130   C     0.56203   0.06993   0.65685   0.00000  Uiso   1.00
C131   C     0.55498   0.08095   0.73259   0.00000  Uiso   1.00
C132   C     0.53677   0.07190   0.80765   0.00000  Uiso   1.00
C133   C     0.52618   0.05226   0.81447   0.00000  Uiso   1.00
C134   C     0.60077   0.16215   0.72295   0.00000  Uiso   1.00
C135   C     0.58880   0.14145   0.72677   0.00000  Uiso   1.00
C136   C     0.56938   0.13257   0.68945   0.00000  Uiso   1.00
C137   C     0.55837   0.11293   0.69238   0.00000  Uiso   1.00
C138   C     0.56656   0.10180   0.73223   0.00000  Uiso   1.00
C139   C     0.58595   0.11074   0.77102   0.00000  Uiso   1.00
C140   C     0.59695   0.13037   0.76816   0.00000  Uiso   1.00
N141   N     0.41746   0.82741   0.85171   0.00000  Uiso   1.00
N142   N     0.32405   0.67646   0.89913   0.00000  Uiso   1.00
C143   C     0.31413   0.65732   0.89920   0.00000  Uiso   1.00
C144   C     0.35390   0.70672   0.89727   0.00000  Uiso   1.00
C145   C     0.37312   0.71655   0.94370   0.00000  Uiso   1.00
C146   C     0.38328   0.73623   0.94036   0.00000  Uiso   1.00
C147   C     0.37452   0.74655   0.88824   0.00000  Uiso   1.00
C148   C     0.35527   0.73668   0.84209   0.00000  Uiso   1.00
C149   C     0.34505   0.71699   0.84759   0.00000  Uiso   1.00
C150   C     0.38546   0.76748   0.88018   0.00000  Uiso   1.00
C151   C     0.40437   0.77692   0.82155   0.00000  Uiso   1.00
C152   C     0.41465   0.79658   0.81404   0.00000  Uiso   1.00
C153   C     0.40624   0.80724   0.86152   0.00000  Uiso   1.00
C154   C     0.38739   0.79792   0.92187   0.00000  Uiso   1.00
C155   C     0.37713   0.77824   0.93112   0.00000  Uiso   1.00
N156   N     0.57919   0.40642   0.68612   0.00000  Uiso   1.00
C157   C     0.58958   0.39656   0.67906   0.00000  Uiso   1.00
N158   N     0.64761   0.32295   0.64738   0.00000  Uiso   1.00
C159   C     0.65794   0.31416   0.64732   0.00000  Uiso   1.00
C160   C     0.64488   0.35153   0.64895   0.00000  Uiso   1.00
C161   C     0.65317   0.37068   0.69606   0.00000  Uiso   1.00
C162   C     0.64237   0.37953   0.70075   0.00000  Uiso   1.00
C163   C     0.62308   0.36947   0.65653   0.00000  Uiso   1.00
C164   C     0.61486   0.35036   0.60738   0.00000  Uiso   1.00
C165   C     0.62561   0.34146   0.60461   0.00000  Uiso   1.00
C166   C     0.61153   0.37880   0.66360   0.00000  Uiso   1.00
C167   C     0.61910   0.39766   0.60782   0.00000  Uiso   1.00
C168   C     0.60822   0.40641   0.61633   0.00000  Uiso   1.00
C169   C     0.58196   0.37768   0.73574   0.00000  Uiso   1.00
C170   C     0.59284   0.36894   0.72779   0.00000  Uiso   1.00
H171   H     0.03965   0.50280   0.91372   0.00000  Uiso   1.00
H172   H     0.07324   0.51528   0.92495   0.00000  Uiso   1.00
H173   H     0.08217   0.56576   0.64902   0.00000  Uiso   1.00
H174   H     0.04835   0.55271   0.62553   0.00000  Uiso   1.00
H175   H     0.10021   0.52316   0.74471   0.00000  Uiso   1.00
H176   H     0.13422   0.53609   0.76846   0.00000  Uiso   1.00
H177   H     0.14155   0.59096   0.88879   0.00000  Uiso   1.00
H178   H     0.10750   0.57797   0.87052   0.00000  Uiso   1.00
H179   H     0.16628   0.56230   0.82576   0.00000  Uiso   1.00
H180   H     0.55679   0.04247   0.58896   0.00000  Uiso   1.00
H181   H     0.57573   0.07654   0.59096   0.00000  Uiso   1.00
H182   H     0.53096   0.07999   0.86801   0.00000  Uiso   1.00
H183   H     0.51257   0.04592   0.88107   0.00000  Uiso   1.00
H184   H     0.61566   0.16815   0.74974   0.00000  Uiso   1.00
H185   H     0.56271   0.14076   0.65652   0.00000  Uiso   1.00
H186   H     0.54352   0.10644   0.65979   0.00000  Uiso   1.00
H187   H     0.59258   0.10255   0.80548   0.00000  Uiso   1.00
H188   H     0.61186   0.13692   0.79873   0.00000  Uiso   1.00
H189   H     0.38029   0.70904   0.98487   0.00000  Uiso   1.00
H190   H     0.39797   0.74336   0.98092   0.00000  Uiso   1.00
H191   H     0.34816   0.74413   0.79775   0.00000  Uiso   1.00
H192   H     0.33030   0.70982   0.80924   0.00000  Uiso   1.00
H193   H     0.41116   0.76912   0.77827   0.00000  Uiso   1.00
H194   H     0.42916   0.80357   0.76800   0.00000  Uiso   1.00
H195   H     0.38066   0.80571   0.96669   0.00000  Uiso   1.00
H196   H     0.36279   0.77147   0.98205   0.00000  Uiso   1.00
H197   H     0.66795   0.37877   0.73276   0.00000  Uiso   1.00
H198   H     0.64906   0.39415   0.74276   0.00000  Uiso   1.00
H199   H     0.60014   0.34231   0.56874   0.00000  Uiso   1.00
H200   H     0.61886   0.32674   0.56559   0.00000  Uiso   1.00
H201   H     0.63333   0.40557   0.55468   0.00000  Uiso   1.00
H202   H     0.61430   0.42093   0.57217   0.00000  Uiso   1.00
H203   H     0.56784   0.36961   0.78989   0.00000  Uiso   1.00
H204   H     0.58674   0.35456   0.77632   0.00000  Uiso   1.00
H205   H     0.50958   0.52386   0.72708   0.00000  Uiso   1.00
H206   H     0.52380   0.50453   0.71169   0.00000  Uiso   1.00
O207   O     0.45007   0.47208   0.79172   0.00000  Uiso   1.00
O208   O     0.46682   0.44999   0.78521   0.00000  Uiso   1.00
C209   C     0.44154   0.47042   0.96755   0.00000  Uiso   1.00
H210   H     0.45168   0.47424   1.08322   0.00000  Uiso   1.00
H211   H     0.43019   0.45562   0.98786   0.00000  Uiso   1.00
H212   H     0.43499   0.47944   0.97060   0.00000  Uiso   1.00
C213   C     0.45801   0.44163   0.95650   0.00000  Uiso   1.00
H214   H     0.46181   0.43082   0.99445   0.00000  Uiso   1.00
H215   H     0.44249   0.43441   0.93946   0.00000  Uiso   1.00
H216   H     0.46232   0.45199   1.07099   0.00000  Uiso   1.00
C217   C     0.51074   0.51894   0.22619   0.00000  Uiso   1.00
C218   C     0.49207   0.51166   0.29223   0.00000  Uiso   1.00
C219   C     0.48155   0.49255   0.33995   0.00000  Uiso   1.00
C220   C     0.48290   0.52342   0.30474   0.00000  Uiso   1.00
C221   C     0.49201   0.54126   0.38831   0.00000  Uiso   1.00
C222   C     0.48354   0.55246   0.39164   0.00000  Uiso   1.00
C223   C     0.46541   0.54574   0.31747   0.00000  Uiso   1.00
C224   C     0.45583   0.52742   0.24448   0.00000  Uiso   1.00
C225   C     0.46448   0.51647   0.23854   0.00000  Uiso   1.00
C226   C     0.45641   0.55762   0.31835   0.00000  Uiso   1.00
C227   C     0.46715   0.57711   0.28522   0.00000  Uiso   1.00
C228   C     0.45873   0.58832   0.28887   0.00000  Uiso   1.00
C229   C     0.43939   0.58028   0.32481   0.00000  Uiso   1.00
C230   C     0.42856   0.56078   0.35580   0.00000  Uiso   1.00
C231   C     0.43698   0.54957   0.35265   0.00000  Uiso   1.00
C232   C     0.43090   0.59247   0.33172   0.00000  Uiso   1.00
C233   C     0.98838   0.48140   0.21356   0.00000  Uiso   1.00
C234   C     0.99157   0.51067   0.32929   0.00000  Uiso   1.00
C235   C     0.97999   0.49206   0.27012   0.00000  Uiso   1.00
C236   C     0.95920   0.48418   0.26538   0.00000  Uiso   1.00
C237   C     0.95154   0.49483   0.19350   0.00000  Uiso   1.00
C238   C     0.93204   0.48746   0.18673   0.00000  Uiso   1.00
C239   C     0.91970   0.46916   0.25145   0.00000  Uiso   1.00
C240   C     0.92736   0.45875   0.32978   0.00000  Uiso   1.00
C241   C     0.94688   0.46635   0.33974   0.00000  Uiso   1.00
C242   C     0.83873   0.43703   0.21633   0.00000  Uiso   1.00
C243   C     0.85940   0.44512   0.22107   0.00000  Uiso   1.00
C244   C     0.86768   0.43401   0.18452   0.00000  Uiso   1.00
C245   C     0.88723   0.44185   0.19306   0.00000  Uiso   1.00
C246   C     0.89894   0.46097   0.23852   0.00000  Uiso   1.00
C247   C     0.89063   0.47210   0.27284   0.00000  Uiso   1.00
C248   C     0.87106   0.46424   0.26435   0.00000  Uiso   1.00
N249   N     0.17246   0.58716   0.35251   0.00000  Uiso   1.00
N250   N     0.32371   0.64758   0.39804   0.00000  Uiso   1.00
C251   C     0.34286   0.65698   0.39811   0.00000  Uiso   1.00
C252   C     0.29326   0.64680   0.39589   0.00000  Uiso   1.00
C253   C     0.28321   0.65598   0.44184   0.00000  Uiso   1.00
C254   C     0.26352   0.64622   0.43902   0.00000  Uiso   1.00
C255   C     0.25341   0.62710   0.38818   0.00000  Uiso   1.00
C256   C     0.26351   0.61796   0.34150   0.00000  Uiso   1.00
C257   C     0.28320   0.62767   0.34644   0.00000  Uiso   1.00
C258   C     0.23244   0.61671   0.38280   0.00000  Uiso   1.00
C259   C     0.22255   0.62576   0.32517   0.00000  Uiso   1.00
C260   C     0.20287   0.61590   0.31792   0.00000  Uiso   1.00
C261   C     0.19267   0.59678   0.36445   0.00000  Uiso   1.00
C262   C     0.20244   0.58774   0.42560   0.00000  Uiso   1.00
C263   C     0.22212   0.59763   0.43472   0.00000  Uiso   1.00
N264   N     0.59163   0.17237   0.18053   0.00000  Uiso   1.00
C265   C     0.60194   0.19265   0.17400   0.00000  Uiso   1.00
N266   N     0.67698   0.32458   0.14812   0.00000  Uiso   1.00
C267   C     0.68587   0.34372   0.14806   0.00000  Uiso   1.00
C268   C     0.64827   0.29327   0.15009   0.00000  Uiso   1.00
C269   C     0.62910   0.28251   0.19661   0.00000  Uiso   1.00
C270   C     0.62011   0.26283   0.20118   0.00000  Uiso   1.00
C271   C     0.63002   0.25343   0.15731   0.00000  Uiso   1.00
C272   C     0.64919   0.26424   0.10955   0.00000  Uiso   1.00
C273   C     0.65823   0.28392   0.10684   0.00000  Uiso   1.00
C274   C     0.62042   0.23249   0.16200   0.00000  Uiso   1.00
C275   C     0.60153   0.22150   0.10572   0.00000  Uiso   1.00
C276   C     0.59243   0.20184   0.11264   0.00000  Uiso   1.00
C277   C     0.62087   0.20355   0.23032   0.00000  Uiso   1.00
C278   C     0.62997   0.22325   0.22416   0.00000  Uiso   1.00
O279   O     0.46322   0.98324   0.14242   0.00000  Uiso   1.00
O280   O     0.48717   0.02243   0.11265   0.00000  Uiso   1.00
C281   C     0.44838   0.98283   0.24981   0.00000  Uiso   1.00
C282   C     0.47514   0.02762   0.20724   0.00000  Uiso   1.00
H283   H     0.46723   0.48662   0.38978   0.00000  Uiso   1.00
H284   H     0.50539   0.54632   0.45679   0.00000  Uiso   1.00
H285   H     0.49095   0.56615   0.45722   0.00000  Uiso   1.00
H286   H     0.44188   0.52176   0.18570   0.00000  Uiso   1.00
H287   H     0.45690   0.50272   0.17700   0.00000  Uiso   1.00
H288   H     0.48206   0.58368   0.25483   0.00000  Uiso   1.00
H289   H     0.46734   0.60331   0.26339   0.00000  Uiso   1.00
H290   H     0.41362   0.55418   0.38495   0.00000  Uiso   1.00
H291   H     0.42833   0.53467   0.38140   0.00000  Uiso   1.00
H292   H     0.44000   0.60752   0.31424   0.00000  Uiso   1.00
H293   H     0.98550   0.51916   0.37173   0.00000  Uiso   1.00
H294   H     0.96063   0.50869   0.13791   0.00000  Uiso   1.00
H295   H     0.92664   0.49584   0.12489   0.00000  Uiso   1.00
H296   H     0.91827   0.44495   0.38828   0.00000  Uiso   1.00
H297   H     0.95233   0.45850   0.41089   0.00000  Uiso   1.00
H298   H     0.83315   0.44629   0.24289   0.00000  Uiso   1.00
H299   H     0.85907   0.41924   0.14925   0.00000  Uiso   1.00
H300   H     0.89322   0.43300   0.16240   0.00000  Uiso   1.00
H301   H     0.89922   0.48680   0.31042   0.00000  Uiso   1.00
H302   H     0.86501   0.47307   0.29363   0.00000  Uiso   1.00
H303   H     0.29056   0.67067   0.48248   0.00000  Uiso   1.00
H304   H     0.25621   0.65360   0.47948   0.00000  Uiso   1.00
H305   H     0.25623   0.60338   0.29767   0.00000  Uiso   1.00
H306   H     0.29053   0.62024   0.30813   0.00000  Uiso   1.00
H307   H     0.23001   0.64036   0.28177   0.00000  Uiso   1.00
H308   H     0.19552   0.62307   0.27181   0.00000  Uiso   1.00
H309   H     0.19497   0.57319   0.47036   0.00000  Uiso   1.00
H310   H     0.22922   0.59038   0.48558   0.00000  Uiso   1.00
H311   H     0.62107   0.28927   0.23272   0.00000  Uiso   1.00
H312   H     0.60546   0.25501   0.24246   0.00000  Uiso   1.00
H313   H     0.65717   0.25748   0.07152   0.00000  Uiso   1.00
H314   H     0.67297   0.29180   0.06859   0.00000  Uiso   1.00
H315   H     0.59383   0.22809   0.05361   0.00000  Uiso   1.00
H316   H     0.57788   0.19368   0.06853   0.00000  Uiso   1.00
H317   H     0.62869   0.19716   0.28287   0.00000  Uiso   1.00
H318   H     0.64438   0.23125   0.27258   0.00000  Uiso   1.00
H319   H     0.43685   0.96801   0.26427   0.00000  Uiso   1.00
H320   H     0.44239   0.99044   0.17558   0.00000  Uiso   1.00
H321   H     0.45304   0.98898   0.38994   0.00000  Uiso   1.00
H322   H     0.46166   0.02201   0.13119   0.00000  Uiso   1.00
H323   H     0.48180   0.04320   0.20690   0.00000  Uiso   1.00
H324   H     0.47234   0.02262   0.35269   0.00000  Uiso   1.00
C325   C     0.50057   0.50888   0.74937   0.00000  Uiso   1.00
C326   C     0.48104   0.50098   0.77491   0.00000  Uiso   1.00
C327   C     0.46982   0.48106   0.79187   0.00000  Uiso   1.00
C328   C     0.47300   0.51390   0.77702   0.00000  Uiso   1.00
C329   C     0.48353   0.53210   0.85332   0.00000  Uiso   1.00
C330   C     0.47636   0.54435   0.85965   0.00000  Uiso   1.00
C331   C     0.45830   0.53875   0.79149   0.00000  Uiso   1.00
C332   C     0.44791   0.52086   0.70976   0.00000  Uiso   1.00
C333   C     0.45532   0.50876   0.69915   0.00000  Uiso   1.00
C334   C     0.45044   0.55158   0.80530   0.00000  Uiso   1.00
C335   C     0.46207   0.57111   0.77881   0.00000  Uiso   1.00
C336   C     0.45468   0.58318   0.79115   0.00000  Uiso   1.00
C337   C     0.43551   0.57599   0.82929   0.00000  Uiso   1.00
C338   C     0.42386   0.55651   0.85728   0.00000  Uiso   1.00
C339   C     0.43127   0.54444   0.84577   0.00000  Uiso   1.00
C340   C     0.42797   0.58899   0.83819   0.00000  Uiso   1.00
C341   C     0.98883   0.49116   0.74014   0.00000  Uiso   1.00
C342   C     0.99137   0.52169   0.78486   0.00000  Uiso   1.00
C343   C     0.97997   0.50197   0.75749   0.00000  Uiso   1.00
C344   C     0.95892   0.49230   0.74394   0.00000  Uiso   1.00
C345   C     0.94972   0.50095   0.65892   0.00000  Uiso   1.00
C346   C     0.93007   0.49210   0.65685   0.00000  Uiso   1.00
C347   C     0.91905   0.47403   0.73259   0.00000  Uiso   1.00
C348   C     0.92810   0.46487   0.80765   0.00000  Uiso   1.00
C349   C     0.94774   0.47392   0.81447   0.00000  Uiso   1.00
C350   C     0.83785   0.43862   0.72295   0.00000  Uiso   1.00
C351   C     0.85855   0.44735   0.72677   0.00000  Uiso   1.00
C352   C     0.86743   0.43681   0.68945   0.00000  Uiso   1.00
C353   C     0.88707   0.44544   0.69238   0.00000  Uiso   1.00
C354   C     0.89820   0.46476   0.73223   0.00000  Uiso   1.00
C355   C     0.88926   0.47521   0.77102   0.00000  Uiso   1.00
C356   C     0.86963   0.46658   0.76816   0.00000  Uiso   1.00
N357   N     0.17259   0.59005   0.85171   0.00000  Uiso   1.00
N358   N     0.32354   0.64759   0.89913   0.00000  Uiso   1.00
C359   C     0.34268   0.65681   0.89920   0.00000  Uiso   1.00
C360   C     0.29328   0.64718   0.89727   0.00000  Uiso   1.00
C361   C     0.28345   0.65657   0.94370   0.00000  Uiso   1.00
C362   C     0.26377   0.64705   0.94036   0.00000  Uiso   1.00
C363   C     0.25345   0.62797   0.88824   0.00000  Uiso   1.00
C364   C     0.26332   0.61859   0.84209   0.00000  Uiso   1.00
C365   C     0.28301   0.62806   0.84759   0.00000  Uiso   1.00
C366   C     0.23252   0.61798   0.88018   0.00000  Uiso   1.00
C367   C     0.22308   0.62745   0.82155   0.00000  Uiso   1.00
C368   C     0.20342   0.61807   0.81404   0.00000  Uiso   1.00
C369   C     0.19276   0.59900   0.86152   0.00000  Uiso   1.00
C370   C     0.20208   0.58947   0.92187   0.00000  Uiso   1.00
C371   C     0.22176   0.59889   0.93112   0.00000  Uiso   1.00
N372   N     0.59358   0.17277   0.68612   0.00000  Uiso   1.00
C373   C     0.60344   0.19302   0.67906   0.00000  Uiso   1.00
N374   N     0.67705   0.32466   0.64738   0.00000  Uiso   1.00
C375   C     0.68584   0.34378   0.64732   0.00000  Uiso   1.00
C376   C     0.64847   0.29335   0.64895   0.00000  Uiso   1.00
C377   C     0.62932   0.28249   0.69606   0.00000  Uiso   1.00
C378   C     0.62047   0.26284   0.70075   0.00000  Uiso   1.00
C379   C     0.63053   0.25361   0.65653   0.00000  Uiso   1.00
C380   C     0.64964   0.26450   0.60738   0.00000  Uiso   1.00
C381   C     0.65854   0.28415   0.60461   0.00000  Uiso   1.00
C382   C     0.62120   0.23273   0.66360   0.00000  Uiso   1.00
C383   C     0.60234   0.22144   0.60782   0.00000  Uiso   1.00
C384   C     0.59359   0.20181   0.61633   0.00000  Uiso   1.00
C385   C     0.62232   0.20428   0.73574   0.00000  Uiso   1.00
C386   C     0.63106   0.22390   0.72779   0.00000  Uiso   1.00
H387   H     0.49720   0.53685   0.91372   0.00000  Uiso   1.00
H388   H     0.48472   0.55796   0.92495   0.00000  Uiso   1.00
H389   H     0.43424   0.51641   0.64902   0.00000  Uiso   1.00
H390   H     0.44729   0.49564   0.62553   0.00000  Uiso   1.00
H391   H     0.47684   0.57705   0.74471   0.00000  Uiso   1.00
H392   H     0.46391   0.59813   0.76846   0.00000  Uiso   1.00
H393   H     0.40904   0.55059   0.88879   0.00000  Uiso   1.00
H394   H     0.42203   0.52953   0.87052   0.00000  Uiso   1.00
H395   H     0.43770   0.60398   0.82576   0.00000  Uiso   1.00
H396   H     0.95753   0.51432   0.58896   0.00000  Uiso   1.00
H397   H     0.92346   0.49919   0.59096   0.00000  Uiso   1.00
H398   H     0.92001   0.45097   0.86801   0.00000  Uiso   1.00
H399   H     0.95408   0.46665   0.88107   0.00000  Uiso   1.00
H400   H     0.83185   0.44751   0.74974   0.00000  Uiso   1.00
H401   H     0.85924   0.42195   0.65652   0.00000  Uiso   1.00
H402   H     0.89356   0.43708   0.65979   0.00000  Uiso   1.00
H403   H     0.89745   0.49003   0.80548   0.00000  Uiso   1.00
H404   H     0.86308   0.47494   0.79873   0.00000  Uiso   1.00
H405   H     0.29096   0.67125   0.98487   0.00000  Uiso   1.00
H406   H     0.25664   0.65461   0.98092   0.00000  Uiso   1.00
H407   H     0.25587   0.60403   0.79775   0.00000  Uiso   1.00
H408   H     0.29018   0.62048   0.80924   0.00000  Uiso   1.00
H409   H     0.23088   0.64204   0.77827   0.00000  Uiso   1.00
H410   H     0.19643   0.62559   0.76800   0.00000  Uiso   1.00
H411   H     0.19429   0.57495   0.96669   0.00000  Uiso   1.00
H412   H     0.22853   0.59132   0.98205   0.00000  Uiso   1.00
H413   H     0.62123   0.28918   0.73276   0.00000  Uiso   1.00
H414   H     0.60585   0.25491   0.74276   0.00000  Uiso   1.00
H415   H     0.65769   0.25783   0.56874   0.00000  Uiso   1.00
H416   H     0.67326   0.29212   0.56559   0.00000  Uiso   1.00
H417   H     0.59443   0.22776   0.55468   0.00000  Uiso   1.00
H418   H     0.57907   0.19337   0.57217   0.00000  Uiso   1.00
H419   H     0.63039   0.19823   0.78989   0.00000  Uiso   1.00
H420   H     0.64544   0.23218   0.77632   0.00000  Uiso   1.00
H421   H     0.47614   0.98572   0.72708   0.00000  Uiso   1.00
H422   H     0.49547   0.01927   0.71169   0.00000  Uiso   1.00
O423   O     0.52792   0.97799   0.79172   0.00000  Uiso   1.00
O424   O     0.55001   0.01683   0.78521   0.00000  Uiso   1.00
C425   C     0.52958   0.97112   0.96755   0.00000  Uiso   1.00
H426   H     0.52576   0.97744   1.08322   0.00000  Uiso   1.00
H427   H     0.54438   0.97457   0.98786   0.00000  Uiso   1.00
H428   H     0.52056   0.95555   0.97060   0.00000  Uiso   1.00
C429   C     0.55837   0.01638   0.95650   0.00000  Uiso   1.00
H430   H     0.56918   0.03099   0.99445   0.00000  Uiso   1.00
H431   H     0.56559   0.00808   0.93946   0.00000  Uiso   1.00
H432   H     0.54801   0.01033   1.07099   0.00000  Uiso   1.00
C433   C     0.48106   0.99180   0.22619   0.00000  Uiso   1.00
C434   C     0.48834   0.98041   0.29223   0.00000  Uiso   1.00
C435   C     0.50745   0.98900   0.33995   0.00000  Uiso   1.00
C436   C     0.47658   0.95948   0.30474   0.00000  Uiso   1.00
C437   C     0.45874   0.95075   0.38831   0.00000  Uiso   1.00
C438   C     0.44754   0.93108   0.39164   0.00000  Uiso   1.00
C439   C     0.45426   0.91967   0.31747   0.00000  Uiso   1.00
C440   C     0.47258   0.92841   0.24448   0.00000  Uiso   1.00
C441   C     0.48353   0.94801   0.23854   0.00000  Uiso   1.00
C442   C     0.44238   0.89879   0.31835   0.00000  Uiso   1.00
C443   C     0.42289   0.89004   0.28522   0.00000  Uiso   1.00
C444   C     0.41168   0.87041   0.28887   0.00000  Uiso   1.00
C445   C     0.41972   0.85911   0.32481   0.00000  Uiso   1.00
C446   C     0.43922   0.86778   0.35580   0.00000  Uiso   1.00
C447   C     0.45043   0.88741   0.35265   0.00000  Uiso   1.00
C448   C     0.40753   0.83843   0.33172   0.00000  Uiso   1.00
C449   C     0.51860   0.50698   0.21356   0.00000  Uiso   1.00
C450   C     0.48933   0.48090   0.32929   0.00000  Uiso   1.00
C451   C     0.50794   0.48793   0.27012   0.00000  Uiso   1.00
C452   C     0.51582   0.47502   0.26538   0.00000  Uiso   1.00
C453   C     0.50517   0.45671   0.19350   0.00000  Uiso   1.00
C454   C     0.51254   0.44458   0.18673   0.00000  Uiso   1.00
C455   C     0.53084   0.45054   0.25145   0.00000  Uiso   1.00
C456   C     0.54125   0.46861   0.32978   0.00000  Uiso   1.00
C457   C     0.53365   0.48053   0.33974   0.00000  Uiso   1.00
C458   C     0.56297   0.40170   0.21633   0.00000  Uiso   1.00
C459   C     0.55488   0.41428   0.22107   0.00000  Uiso   1.00
C460   C     0.56599   0.43367   0.18452   0.00000  Uiso   1.00
C461   C     0.55815   0.44538   0.19306   0.00000  Uiso   1.00
C462   C     0.53903   0.43797   0.23852   0.00000  Uiso   1.00
C463   C     0.52790   0.41853   0.27284   0.00000  Uiso   1.00
C464   C     0.53576   0.40682   0.26435   0.00000  Uiso   1.00
N465   N     0.41284   0.58530   0.35251   0.00000  Uiso   1.00
N466   N     0.35242   0.67613   0.39804   0.00000  Uiso   1.00
C467   C     0.34302   0.68588   0.39811   0.00000  Uiso   1.00
C468   C     0.35320   0.64646   0.39589   0.00000  Uiso   1.00
C469   C     0.34402   0.62723   0.44184   0.00000  Uiso   1.00
C470   C     0.35378   0.61730   0.43902   0.00000  Uiso   1.00
C471   C     0.37290   0.62631   0.38818   0.00000  Uiso   1.00
C472   C     0.38204   0.64555   0.34150   0.00000  Uiso   1.00
C473   C     0.37233   0.65553   0.34644   0.00000  Uiso   1.00
C474   C     0.38329   0.61573   0.38280   0.00000  Uiso   1.00
C475   C     0.37424   0.59679   0.32517   0.00000  Uiso   1.00
C476   C     0.38410   0.58697   0.31792   0.00000  Uiso   1.00
C477   C     0.40322   0.59589   0.36445   0.00000  Uiso   1.00
C478   C     0.41226   0.61470   0.42560   0.00000  Uiso   1.00
C479   C     0.40237   0.62449   0.43472   0.00000  Uiso   1.00
N480   N     0.82763   0.41926   0.18053   0.00000  Uiso   1.00
C481   C     0.80735   0.40929   0.17400   0.00000  Uiso   1.00
N482   N     0.67542   0.35240   0.14812   0.00000  Uiso   1.00
C483   C     0.65628   0.34215   0.14806   0.00000  Uiso   1.00
C484   C     0.70673   0.35500   0.15009   0.00000  Uiso   1.00
C485   C     0.71749   0.34659   0.19661   0.00000  Uiso   1.00
C486   C     0.73717   0.35728   0.20118   0.00000  Uiso   1.00
C487   C     0.74657   0.37659   0.15731   0.00000  Uiso   1.00
C488   C     0.73576   0.38495   0.10955   0.00000  Uiso   1.00
C489   C     0.71608   0.37431   0.10684   0.00000  Uiso   1.00
C490   C     0.76751   0.38793   0.16200   0.00000  Uiso   1.00
C491   C     0.77850   0.38003   0.10572   0.00000  Uiso   1.00
C492   C     0.79816   0.39059   0.11264   0.00000  Uiso   1.00
C493   C     0.79645   0.41732   0.23032   0.00000  Uiso   1.00
C494   C     0.77675   0.40672   0.22416   0.00000  Uiso   1.00
O495   O     0.01676   0.47998   0.14242   0.00000  Uiso   1.00
O496   O     0.97757   0.46474   0.11265   0.00000  Uiso   1.00
C497   C     0.01717   0.46555   0.24981   0.00000  Uiso   1.00
C498   C     0.97238   0.44752   0.20724   0.00000  Uiso   1.00
H499   H     0.51338   0.98061   0.38978   0.00000  Uiso   1.00
H500   H     0.45368   0.95907   0.45679   0.00000  Uiso   1.00
H501   H     0.43385   0.92480   0.45722   0.00000  Uiso   1.00
H502   H     0.47824   0.92012   0.18570   0.00000  Uiso   1.00
H503   H     0.49728   0.95418   0.17700   0.00000  Uiso   1.00
H504   H     0.41632   0.89838   0.25483   0.00000  Uiso   1.00
H505   H     0.39669   0.86403   0.26339   0.00000  Uiso   1.00
H506   H     0.44582   0.85944   0.38495   0.00000  Uiso   1.00
H507   H     0.46533   0.89366   0.38140   0.00000  Uiso   1.00
H508   H     0.39248   0.83248   0.31424   0.00000  Uiso   1.00
H509   H     0.48084   0.46634   0.37173   0.00000  Uiso   1.00
H510   H     0.49131   0.45194   0.13791   0.00000  Uiso   1.00
H511   H     0.50416   0.43080   0.12489   0.00000  Uiso   1.00
H512   H     0.55505   0.47332   0.38828   0.00000  Uiso   1.00
H513   H     0.54150   0.49383   0.41089   0.00000  Uiso   1.00
H514   H     0.55371   0.38686   0.24289   0.00000  Uiso   1.00
H515   H     0.58076   0.43983   0.14925   0.00000  Uiso   1.00
H516   H     0.56700   0.46022   0.16240   0.00000  Uiso   1.00
H517   H     0.51320   0.41242   0.31042   0.00000  Uiso   1.00
H518   H     0.52693   0.39194   0.29363   0.00000  Uiso   1.00
H519   H     0.32933   0.61989   0.48248   0.00000  Uiso   1.00
H520   H     0.34640   0.60261   0.47948   0.00000  Uiso   1.00
H521   H     0.39662   0.65285   0.29767   0.00000  Uiso   1.00
H522   H     0.37976   0.67029   0.30813   0.00000  Uiso   1.00
H523   H     0.35964   0.58965   0.28177   0.00000  Uiso   1.00
H524   H     0.37693   0.57245   0.27181   0.00000  Uiso   1.00
H525   H     0.42681   0.62178   0.47036   0.00000  Uiso   1.00
H526   H     0.40962   0.63884   0.48558   0.00000  Uiso   1.00
H527   H     0.71073   0.33180   0.23272   0.00000  Uiso   1.00
H528   H     0.74499   0.35045   0.24246   0.00000  Uiso   1.00
H529   H     0.74252   0.39969   0.07152   0.00000  Uiso   1.00
H530   H     0.70820   0.38117   0.06859   0.00000  Uiso   1.00
H531   H     0.77191   0.36574   0.05361   0.00000  Uiso   1.00
H532   H     0.80632   0.38420   0.06853   0.00000  Uiso   1.00
H533   H     0.80284   0.43153   0.28287   0.00000  Uiso   1.00
H534   H     0.76875   0.41313   0.27258   0.00000  Uiso   1.00
H535   H     0.03199   0.46884   0.26427   0.00000  Uiso   1.00
H536   H     0.00956   0.45195   0.17558   0.00000  Uiso   1.00
H537   H     0.01102   0.46406   0.38994   0.00000  Uiso   1.00
H538   H     0.97799   0.43965   0.13119   0.00000  Uiso   1.00
H539   H     0.95680   0.43860   0.20690   0.00000  Uiso   1.00
H540   H     0.97738   0.44972   0.35269   0.00000  Uiso   1.00
C541   C     0.49112   0.99169   0.74937   0.00000  Uiso   1.00
C542   C     0.49902   0.98006   0.77491   0.00000  Uiso   1.00
C543   C     0.51894   0.98876   0.79187   0.00000  Uiso   1.00
C544   C     0.48610   0.95910   0.77702   0.00000  Uiso   1.00
C545   C     0.46790   0.95143   0.85332   0.00000  Uiso   1.00
C546   C     0.45565   0.93201   0.85965   0.00000  Uiso   1.00
C547   C     0.46125   0.91955   0.79149   0.00000  Uiso   1.00
C548   C     0.47914   0.92705   0.70976   0.00000  Uiso   1.00
C549   C     0.49124   0.94656   0.69915   0.00000  Uiso   1.00
C550   C     0.44842   0.89886   0.80530   0.00000  Uiso   1.00
C551   C     0.42889   0.89096   0.77881   0.00000  Uiso   1.00
C552   C     0.41682   0.87150   0.79115   0.00000  Uiso   1.00
C553   C     0.42401   0.85952   0.82929   0.00000  Uiso   1.00
C554   C     0.44349   0.86735   0.85728   0.00000  Uiso   1.00
C555   C     0.45556   0.88683   0.84577   0.00000  Uiso   1.00
C556   C     0.41101   0.83898   0.83819   0.00000  Uiso   1.00
C557   C     0.50884   0.49767   0.74014   0.00000  Uiso   1.00
C558   C     0.47831   0.46968   0.78486   0.00000  Uiso   1.00
C559   C     0.49803   0.47800   0.75749   0.00000  Uiso   1.00
C560   C     0.50770   0.46662   0.74394   0.00000  Uiso   1.00
C561   C     0.49905   0.44877   0.65892   0.00000  Uiso   1.00
C562   C     0.50790   0.43797   0.65685   0.00000  Uiso   1.00
C563   C     0.52597   0.44502   0.73259   0.00000  Uiso   1.00
C564   C     0.53513   0.46323   0.80765   0.00000  Uiso   1.00
C565   C     0.52608   0.47382   0.81447   0.00000  Uiso   1.00
C566   C     0.56138   0.39923   0.72295   0.00000  Uiso   1.00
C567   C     0.55265   0.41120   0.72677   0.00000  Uiso   1.00
C568   C     0.56319   0.43062   0.68945   0.00000  Uiso   1.00
C569   C     0.55456   0.44163   0.69238   0.00000  Uiso   1.00
C570   C     0.53524   0.43344   0.73223   0.00000  Uiso   1.00
C571   C     0.52479   0.41405   0.77102   0.00000  Uiso   1.00
C572   C     0.53342   0.40305   0.76816   0.00000  Uiso   1.00
N573   N     0.40995   0.58254   0.85171   0.00000  Uiso   1.00
N574   N     0.35241   0.67595   0.89913   0.00000  Uiso   1.00
C575   C     0.34319   0.68587   0.89920   0.00000  Uiso   1.00
C576   C     0.35282   0.64610   0.89727   0.00000  Uiso   1.00
C577   C     0.34343   0.62688   0.94370   0.00000  Uiso   1.00
C578   C     0.35295   0.61672   0.94036   0.00000  Uiso   1.00
C579   C     0.37203   0.62548   0.88824   0.00000  Uiso   1.00
C580   C     0.38141   0.64473   0.84209   0.00000  Uiso   1.00
C581   C     0.37194   0.65495   0.84759   0.00000  Uiso   1.00
C582   C     0.38202   0.61454   0.88018   0.00000  Uiso   1.00
C583   C     0.37255   0.59563   0.82155   0.00000  Uiso   1.00
C584   C     0.38193   0.58535   0.81404   0.00000  Uiso   1.00
C585   C     0.40100   0.59376   0.86152   0.00000  Uiso   1.00
C586   C     0.41053   0.61261   0.92187   0.00000  Uiso   1.00
C587   C     0.40111   0.62287   0.93112   0.00000  Uiso   1.00
N588   N     0.82723   0.42081   0.68612   0.00000  Uiso   1.00
C589   C     0.80698   0.41042   0.67906   0.00000  Uiso   1.00
N590   N     0.67534   0.35239   0.64738   0.00000  Uiso   1.00
C591   C     0.65622   0.34206   0.64732   0.00000  Uiso   1.00
C592   C     0.70665   0.35512   0.64895   0.00000  Uiso   1.00
C593   C     0.71751   0.34683   0.69606   0.00000  Uiso   1.00
C594   C     0.73716   0.35763   0.70075   0.00000  Uiso   1.00
C595   C     0.74639   0.37692   0.65653   0.00000  Uiso   1.00
C596   C     0.73550   0.38514   0.60738   0.00000  Uiso   1.00
C597   C     0.71585   0.37439   0.60461   0.00000  Uiso   1.00
C598   C     0.76727   0.38847   0.66360   0.00000  Uiso   1.00
C599   C     0.77856   0.38090   0.60782   0.00000  Uiso   1.00
C600   C     0.79819   0.39178   0.61633   0.00000  Uiso   1.00
C601   C     0.79572   0.41804   0.73574   0.00000  Uiso   1.00
C602   C     0.77610   0.40716   0.72779   0.00000  Uiso   1.00
H603   H     0.46315   0.96035   0.91372   0.00000  Uiso   1.00
H604   H     0.44204   0.92676   0.92495   0.00000  Uiso   1.00
H605   H     0.48359   0.91783   0.64902   0.00000  Uiso   1.00
H606   H     0.50436   0.95165   0.62553   0.00000  Uiso   1.00
H607   H     0.42295   0.89979   0.74471   0.00000  Uiso   1.00
H608   H     0.40187   0.86578   0.76846   0.00000  Uiso   1.00
H609   H     0.44941   0.85845   0.88879   0.00000  Uiso   1.00
H610   H     0.47047   0.89250   0.87052   0.00000  Uiso   1.00
H611   H     0.39602   0.83372   0.82576   0.00000  Uiso   1.00
H612   H     0.48568   0.44321   0.58896   0.00000  Uiso   1.00
H613   H     0.50081   0.42427   0.59096   0.00000  Uiso   1.00
H614   H     0.54903   0.46904   0.86801   0.00000  Uiso   1.00
H615   H     0.53335   0.48743   0.88107   0.00000  Uiso   1.00
H616   H     0.55249   0.38434   0.74974   0.00000  Uiso   1.00
H617   H     0.57805   0.43729   0.65652   0.00000  Uiso   1.00
H618   H     0.56292   0.45648   0.65979   0.00000  Uiso   1.00
H619   H     0.50997   0.40742   0.80548   0.00000  Uiso   1.00
H620   H     0.52506   0.38814   0.79873   0.00000  Uiso   1.00
H621   H     0.32875   0.61971   0.98487   0.00000  Uiso   1.00
H622   H     0.34539   0.60203   0.98092   0.00000  Uiso   1.00
H623   H     0.39597   0.65184   0.79775   0.00000  Uiso   1.00
H624   H     0.37952   0.66970   0.80924   0.00000  Uiso   1.00
H625   H     0.35796   0.58884   0.77827   0.00000  Uiso   1.00
H626   H     0.37441   0.57084   0.76800   0.00000  Uiso   1.00
H627   H     0.42505   0.61934   0.96669   0.00000  Uiso   1.00
H628   H     0.40868   0.63721   0.98205   0.00000  Uiso   1.00
H629   H     0.71082   0.33205   0.73276   0.00000  Uiso   1.00
H630   H     0.74509   0.35094   0.74276   0.00000  Uiso   1.00
H631   H     0.74217   0.39986   0.56874   0.00000  Uiso   1.00
H632   H     0.70788   0.38114   0.56559   0.00000  Uiso   1.00
H633   H     0.77224   0.36667   0.55468   0.00000  Uiso   1.00
H634   H     0.80663   0.38570   0.57217   0.00000  Uiso   1.00
H635   H     0.80177   0.43216   0.78989   0.00000  Uiso   1.00
H636   H     0.76782   0.41326   0.77632   0.00000  Uiso   1.00
H637   H     0.01428   0.49042   0.72708   0.00000  Uiso   1.00
H638   H     0.98073   0.47620   0.71169   0.00000  Uiso   1.00
O639   O     0.02201   0.54993   0.79172   0.00000  Uiso   1.00
O640   O     0.98317   0.53318   0.78521   0.00000  Uiso   1.00
C641   C     0.02888   0.55846   0.96755   0.00000  Uiso   1.00
H642   H     0.02256   0.54832   1.08322   0.00000  Uiso   1.00
H643   H     0.02543   0.56981   0.98786   0.00000  Uiso   1.00
H644   H     0.04445   0.56501   0.97060   0.00000  Uiso   1.00
C645   C     0.98362   0.54199   0.95650   0.00000  Uiso   1.00
H646   H     0.96901   0.53819   0.99445   0.00000  Uiso   1.00
H647   H     0.99192   0.55751   0.93946   0.00000  Uiso   1.00
H648   H     0.98967   0.53768   1.07099   0.00000  Uiso   1.00
loop_
_geom_bond_atom_site_label_1
_geom_bond_atom_site_label_2
_geom_bond_distance
_geom_bond_site_symmetry_2
_ccdc_geom_bond_type
C1     C2      1.418   .     D
C1     O495    1.404   .     S
C1     C233    1.419   1_455 S
C2     C3      1.401   .     S
C2     C4      1.491   .     S
C3     H67     1.083   .     S
C3     C234    1.389   1_455 D
C4     C5      1.403   .     D
C4     C9      1.404   .     S
C5     C6      1.400   .     S
C5     H68     1.079   .     S
C6     C7      1.407   .     D
C6     H69     1.082   .     S
C7     C8      1.403   .     S
C7     C10     1.486   .     S
C8     C9      1.394   .     D
C8     H70     1.083   .     S
C9     H71     1.074   .     S
C10    C11     1.405   .     D
C10    C15     1.407   .     S
C11    C12     1.397   .     S
C11    H72     1.083   .     S
C12    C13     1.403   .     D
C12    H73     1.083   .     S
C13    C14     1.404   .     S
C13    C16     1.475   .     S
C14    C15     1.397   .     D
C14    H74     1.083   .     S
C15    H75     1.082   .     S
C16    H76     1.083   .     S
C16    N249    1.299   .     D
C17    C19     1.415   .     D
C17    O280    1.405   .     S
C17    C433    1.419   1_545 S
C18    C19     1.400   .     S
C18    H77     1.082   .     S
C18    C435    1.389   1_545 D
C19    C20     1.489   .     S
C20    C21     1.405   .     D
C20    C25     1.403   .     S
C21    C22     1.398   .     S
C21    H78     1.077   .     S
C22    C23     1.405   .     D
C22    H79     1.082   .     S
C23    C24     1.406   .     S
C23    C30     1.486   .     S
C24    C25     1.398   .     D
C24    H80     1.082   .     S
C25    H81     1.080   .     S
C26    C27     1.478   .     S
C26    H82     1.081   .     S
C26    N264    1.300   .     D
C27    C28     1.405   .     D
C27    C32     1.403   .     S
C28    C29     1.397   .     S
C28    H83     1.083   .     S
C29    C30     1.407   .     D
C29    H84     1.082   .     S
C30    C31     1.406   .     S
C31    C32     1.398   .     D
C31    H85     1.082   .     S
C32    H86     1.083   .     S
N33    C45     1.437   .     S
N33    C448    1.299   .     D
N34    C35     1.358   .     D
N34    C467    1.358   .     S
C35    N250    1.358   .     S
C35    C252    1.480   .     S
C36    C37     1.404   .     S
C36    C41     1.404   .     D
C36    C467    1.480   .     S
C37    C38     1.397   .     D
C37    H87     1.083   .     S
C38    C39     1.406   .     S
C38    H88     1.082   .     S
C39    C40     1.407   .     D
C39    C42     1.488   .     S
C40    C41     1.397   .     S
C40    H89     1.082   .     S
C41    H90     1.083   .     S
C42    C43     1.407   .     D
C42    C47     1.406   .     S
C43    C44     1.397   .     S
C43    H91     1.082   .     S
C44    C45     1.398   .     D
C44    H92     1.083   .     S
C45    C46     1.406   .     S
C46    C47     1.397   .     D
C46    H93     1.082   .     S
C47    H94     1.083   .     S
N48    C49     1.439   .     S
N48    C458    1.300   .     D
C49    C60     1.399   .     D
C49    C61     1.408   .     S
N50    C51     1.359   .     D
N50    C483    1.359   .     S
C51    N266    1.359   .     S
C51    C268    1.481   .     S
C52    C53     1.404   .     D
C52    C57     1.405   .     S
C52    C483    1.481   .     S
C53    C54     1.398   .     S
C53    H95     1.082   .     S
C54    C55     1.406   .     D
C54    H96     1.082   .     S
C55    C56     1.407   .     S
C55    C58     1.487   .     S
C56    C57     1.397   .     D
C56    H97     1.082   .     S
C57    H98     1.082   .     S
C58    C59     1.406   .     D
C58    C62     1.407   .     S
C59    C60     1.397   .     S
C59    H99     1.083   .     S
C60    H100    1.083   .     S
C61    C62     1.399   .     D
C61    H101    1.079   .     S
C62    H102    1.083   .     S
O63    C65     1.430   .     S
O63    C217    1.404   .     S
O64    C66     1.428   .     S
O64    C449    1.405   .     S
C65    H103    1.109   .     S
C65    H104    1.107   .     S
C65    H105    1.113   .     S
C66    H106    1.108   .     S
C66    H107    1.109   .     S
C66    H108    1.113   .     S
C109   C110    1.406   .     D
C109   H637    1.082   .     S
C109   C341    1.388   1_455 S
C110   C111    1.422   .     S
C110   C112    1.500   .     S
C111   O639    1.403   .     S
C111   C342    1.415   1_455 D
C112   C113    1.409   .     D
C112   C117    1.408   .     S
C113   C114    1.394   .     S
C113   H171    1.077   .     S
C114   C115    1.401   .     D
C114   H172    1.083   .     S
C115   C116    1.405   .     S
C115   C118    1.485   .     S
C116   C117    1.399   .     D
C116   H173    1.083   .     S
C117   H174    1.079   .     S
C118   C119    1.407   .     D
C118   C123    1.405   .     S
C119   C120    1.396   .     S
C119   H175    1.083   .     S
C120   C121    1.401   .     D
C120   H176    1.083   .     S
C121   C122    1.405   .     S
C121   C124    1.475   .     S
C122   C123    1.397   .     D
C122   H177    1.083   .     S
C123   H178    1.083   .     S
C124   H179    1.083   .     S
C124   N357    1.299   .     D
C125   C127    1.403   .     D
C125   H422    1.082   .     S
C125   C541    1.388   1_545 S
C126   C127    1.418   .     S
C126   O424    1.403   .     S
C126   C543    1.415   1_545 D
C127   C128    1.498   .     S
C128   C129    1.408   .     D
C128   C133    1.410   .     S
C129   C130    1.396   .     S
C129   H180    1.079   .     S
C130   C131    1.404   .     D
C130   H181    1.083   .     S
C131   C132    1.402   .     S
C131   C138    1.482   .     S
C132   C133    1.395   .     D
C132   H182    1.083   .     S
C133   H183    1.080   .     S
C134   C135    1.474   .     S
C134   H184    1.080   .     S
C134   N372    1.299   .     D
C135   C136    1.405   .     D
C135   C140    1.402   .     S
C136   C137    1.397   .     S
C136   H185    1.082   .     S
C137   C138    1.406   .     D
C137   H186    1.082   .     S
C138   C139    1.405   .     S
C139   C140    1.396   .     D
C139   H187    1.082   .     S
C140   H188    1.083   .     S
N141   C153    1.435   .     S
N141   C556    1.299   .     D
N142   C143    1.358   .     D
N142   C575    1.358   .     S
C143   N358    1.358   .     S
C143   C360    1.479   .     S
C144   C145    1.404   .     S
C144   C149    1.404   .     D
C144   C575    1.479   .     S
C145   C146    1.396   .     D
C145   H189    1.083   .     S
C146   C147    1.406   .     S
C146   H190    1.083   .     S
C147   C148    1.406   .     D
C147   C150    1.486   .     S
C148   C149    1.397   .     S
C148   H191    1.082   .     S
C149   H192    1.083   .     S
C150   C151    1.407   .     D
C150   C155    1.407   .     S
C151   C152    1.396   .     S
C151   H193    1.082   .     S
C152   C153    1.399   .     D
C152   H194    1.082   .     S
C153   C154    1.407   .     S
C154   C155    1.398   .     D
C154   H195    1.081   .     S
C155   H196    1.083   .     S
N156   C157    1.437   .     S
N156   C566    1.299   .     D
C157   C168    1.399   .     D
C157   C169    1.409   .     S
N158   C159    1.358   .     D
N158   C591    1.358   .     S
C159   N374    1.358   .     S
C159   C376    1.478   .     S
C160   C161    1.404   .     D
C160   C165    1.404   .     S
C160   C591    1.478   .     S
C161   C162    1.396   .     S
C161   H197    1.083   .     S
C162   C163    1.406   .     D
C162   H198    1.082   .     S
C163   C164    1.406   .     S
C163   C166    1.485   .     S
C164   C165    1.396   .     D
C164   H199    1.082   .     S
C165   H200    1.083   .     S
C166   C167    1.406   .     D
C166   C170    1.406   .     S
C167   C168    1.396   .     S
C167   H201    1.082   .     S
C168   H202    1.083   .     S
C169   C170    1.396   .     D
C169   H203    1.079   .     S
C170   H204    1.083   .     S
H205   C325    1.082   .     S
H206   C557    1.082   .     S
O207   C209    1.427   .     S
O207   C327    1.403   .     S
O208   C213    1.427   .     S
O208   C558    1.403   .     S
C209   H210    1.109   .     S
C209   H211    1.108   .     S
C209   H212    1.109   .     S
C213   H214    1.110   .     S
C213   H215    1.109   .     S
C213   H216    1.111   .     S
C217   C218    1.418   .     D
C217   C449    1.419   .     S
C218   C219    1.401   .     S
C218   C220    1.491   .     S
C219   H283    1.083   .     S
C219   C450    1.389   .     D
C220   C221    1.403   .     D
C220   C225    1.404   .     S
C221   C222    1.400   .     S
C221   H284    1.079   .     S
C222   C223    1.407   .     D
C222   H285    1.082   .     S
C223   C224    1.403   .     S
C223   C226    1.486   .     S
C224   C225    1.394   .     D
C224   H286    1.083   .     S
C225   H287    1.074   .     S
C226   C227    1.405   .     D
C226   C231    1.407   .     S
C227   C228    1.397   .     S
C227   H288    1.083   .     S
C228   C229    1.403   .     D
C228   H289    1.083   .     S
C229   C230    1.404   .     S
C229   C232    1.475   .     S
C230   C231    1.397   .     D
C230   H290    1.083   .     S
C231   H291    1.082   .     S
C232   H292    1.083   .     S
C232   N465    1.299   .     D
C233   C235    1.415   .     D
C233   O496    1.405   .     S
C233   C1      1.419   1_655 S
C234   C235    1.400   .     S
C234   H293    1.082   .     S
C234   C3      1.389   1_655 D
C235   C236    1.489   .     S
C236   C237    1.405   .     D
C236   C241    1.403   .     S
C237   C238    1.398   .     S
C237   H294    1.077   .     S
C238   C239    1.405   .     D
C238   H295    1.082   .     S
C239   C240    1.406   .     S
C239   C246    1.486   .     S
C240   C241    1.398   .     D
C240   H296    1.082   .     S
C241   H297    1.080   .     S
C242   C243    1.478   .     S
C242   H298    1.081   .     S
C242   N480    1.300   .     D
C243   C244    1.405   .     D
C243   C248    1.403   .     S
C244   C245    1.397   .     S
C244   H299    1.083   .     S
C245   C246    1.407   .     D
C245   H300    1.082   .     S
C246   C247    1.406   .     S
C247   C248    1.398   .     D
C247   H301    1.082   .     S
C248   H302    1.083   .     S
N249   C261    1.437   .     S
N250   C251    1.358   .     D
C251   N466    1.358   .     S
C251   C468    1.480   .     S
C252   C253    1.404   .     D
C252   C257    1.404   .     S
C253   C254    1.397   .     S
C253   H303    1.083   .     S
C254   C255    1.406   .     D
C254   H304    1.082   .     S
C255   C256    1.407   .     S
C255   C258    1.488   .     S
C256   C257    1.397   .     D
C256   H305    1.082   .     S
C257   H306    1.083   .     S
C258   C259    1.407   .     D
C258   C263    1.406   .     S
C259   C260    1.397   .     S
C259   H307    1.082   .     S
C260   C261    1.398   .     D
C260   H308    1.083   .     S
C261   C262    1.406   .     S
C262   C263    1.397   .     D
C262   H309    1.082   .     S
C263   H310    1.083   .     S
N264   C265    1.439   .     S
C265   C276    1.399   .     D
C265   C277    1.408   .     S
N266   C267    1.359   .     D
C267   N482    1.359   .     S
C267   C484    1.481   .     S
C268   C269    1.404   .     D
C268   C273    1.405   .     S
C269   C270    1.398   .     S
C269   H311    1.082   .     S
C270   C271    1.406   .     D
C270   H312    1.082   .     S
C271   C272    1.407   .     S
C271   C274    1.487   .     S
C272   C273    1.397   .     D
C272   H313    1.082   .     S
C273   H314    1.082   .     S
C274   C275    1.406   .     D
C274   C278    1.407   .     S
C275   C276    1.397   .     S
C275   H315    1.083   .     S
C276   H316    1.083   .     S
C277   C278    1.399   .     D
C277   H317    1.079   .     S
C278   H318    1.083   .     S
O279   C281    1.430   .     S
O279   C433    1.404   .     S
O280   C282    1.428   .     S
C281   H319    1.109   .     S
C281   H320    1.107   .     S
C281   H321    1.113   .     S
C282   H322    1.108   .     S
C282   H323    1.109   .     S
C282   H324    1.113   .     S
C325   C326    1.406   .     D
C325   C557    1.388   .     S
C326   C327    1.422   .     S
C326   C328    1.500   .     S
C327   C558    1.415   .     D
C328   C329    1.409   .     D
C328   C333    1.408   .     S
C329   C330    1.394   .     S
C329   H387    1.077   .     S
C330   C331    1.401   .     D
C330   H388    1.083   .     S
C331   C332    1.405   .     S
C331   C334    1.485   .     S
C332   C333    1.399   .     D
C332   H389    1.083   .     S
C333   H390    1.079   .     S
C334   C335    1.407   .     D
C334   C339    1.405   .     S
C335   C336    1.396   .     S
C335   H391    1.083   .     S
C336   C337    1.401   .     D
C336   H392    1.083   .     S
C337   C338    1.405   .     S
C337   C340    1.475   .     S
C338   C339    1.397   .     D
C338   H393    1.083   .     S
C339   H394    1.083   .     S
C340   H395    1.083   .     S
C340   N573    1.299   .     D
C341   C343    1.403   .     D
C341   H638    1.082   .     S
C341   C109    1.388   1_655 S
C342   C343    1.418   .     S
C342   O640    1.403   .     S
C342   C111    1.415   1_655 D
C343   C344    1.498   .     S
C344   C345    1.408   .     D
C344   C349    1.410   .     S
C345   C346    1.396   .     S
C345   H396    1.079   .     S
C346   C347    1.404   .     D
C346   H397    1.083   .     S
C347   C348    1.402   .     S
C347   C354    1.482   .     S
C348   C349    1.395   .     D
C348   H398    1.083   .     S
C349   H399    1.080   .     S
C350   C351    1.474   .     S
C350   H400    1.080   .     S
C350   N588    1.299   .     D
C351   C352    1.405   .     D
C351   C356    1.402   .     S
C352   C353    1.397   .     S
C352   H401    1.082   .     S
C353   C354    1.406   .     D
C353   H402    1.082   .     S
C354   C355    1.405   .     S
C355   C356    1.396   .     D
C355   H403    1.082   .     S
C356   H404    1.083   .     S
N357   C369    1.435   .     S
N358   C359    1.358   .     D
C359   N574    1.358   .     S
C359   C576    1.479   .     S
C360   C361    1.404   .     D
C360   C365    1.404   .     S
C361   C362    1.396   .     S
C361   H405    1.083   .     S
C362   C363    1.406   .     D
C362   H406    1.083   .     S
C363   C364    1.406   .     S
C363   C366    1.486   .     S
C364   C365    1.397   .     D
C364   H407    1.082   .     S
C365   H408    1.083   .     S
C366   C367    1.407   .     D
C366   C371    1.407   .     S
C367   C368    1.396   .     S
C367   H409    1.082   .     S
C368   C369    1.399   .     D
C368   H410    1.082   .     S
C369   C370    1.407   .     S
C370   C371    1.398   .     D
C370   H411    1.081   .     S
C371   H412    1.083   .     S
N372   C373    1.437   .     S
C373   C384    1.399   .     D
C373   C385    1.409   .     S
N374   C375    1.358   .     D
C375   N590    1.358   .     S
C375   C592    1.478   .     S
C376   C377    1.404   .     D
C376   C381    1.404   .     S
C377   C378    1.396   .     S
C377   H413    1.083   .     S
C378   C379    1.406   .     D
C378   H414    1.082   .     S
C379   C380    1.406   .     S
C379   C382    1.485   .     S
C380   C381    1.396   .     D
C380   H415    1.082   .     S
C381   H416    1.083   .     S
C382   C383    1.406   .     D
C382   C386    1.406   .     S
C383   C384    1.396   .     S
C383   H417    1.082   .     S
C384   H418    1.083   .     S
C385   C386    1.396   .     D
C385   H419    1.079   .     S
C386   H420    1.083   .     S
H421   C541    1.082   .     S
O423   C425    1.427   .     S
O423   C543    1.403   .     S
O424   C429    1.427   .     S
C425   H426    1.109   .     S
C425   H427    1.108   .     S
C425   H428    1.109   .     S
C429   H430    1.110   .     S
C429   H431    1.109   .     S
C429   H432    1.111   .     S
C433   C434    1.418   .     D
C433   C17     1.419   1_565 S
C434   C435    1.401   .     S
C434   C436    1.491   .     S
C435   H499    1.083   .     S
C435   C18     1.389   1_565 D
C436   C437    1.403   .     D
C436   C441    1.404   .     S
C437   C438    1.400   .     S
C437   H500    1.079   .     S
C438   C439    1.407   .     D
C438   H501    1.082   .     S
C439   C440    1.403   .     S
C439   C442    1.486   .     S
C440   C441    1.394   .     D
C440   H502    1.083   .     S
C441   H503    1.074   .     S
C442   C443    1.405   .     D
C442   C447    1.407   .     S
C443   C444    1.397   .     S
C443   H504    1.083   .     S
C444   C445    1.403   .     D
C444   H505    1.083   .     S
C445   C446    1.404   .     S
C445   C448    1.475   .     S
C446   C447    1.397   .     D
C446   H506    1.083   .     S
C447   H507    1.082   .     S
C448   H508    1.083   .     S
C449   C451    1.415   .     D
C450   C451    1.400   .     S
C450   H509    1.082   .     S
C451   C452    1.489   .     S
C452   C453    1.405   .     D
C452   C457    1.403   .     S
C453   C454    1.398   .     S
C453   H510    1.077   .     S
C454   C455    1.405   .     D
C454   H511    1.082   .     S
C455   C456    1.406   .     S
C455   C462    1.486   .     S
C456   C457    1.398   .     D
C456   H512    1.082   .     S
C457   H513    1.080   .     S
C458   C459    1.478   .     S
C458   H514    1.081   .     S
C459   C460    1.405   .     D
C459   C464    1.403   .     S
C460   C461    1.397   .     S
C460   H515    1.083   .     S
C461   C462    1.407   .     D
C461   H516    1.082   .     S
C462   C463    1.406   .     S
C463   C464    1.398   .     D
C463   H517    1.082   .     S
C464   H518    1.083   .     S
N465   C477    1.437   .     S
N466   C467    1.358   .     D
C468   C469    1.404   .     D
C468   C473    1.404   .     S
C469   C470    1.397   .     S
C469   H519    1.083   .     S
C470   C471    1.406   .     D
C470   H520    1.082   .     S
C471   C472    1.407   .     S
C471   C474    1.488   .     S
C472   C473    1.397   .     D
C472   H521    1.082   .     S
C473   H522    1.083   .     S
C474   C475    1.407   .     D
C474   C479    1.406   .     S
C475   C476    1.397   .     S
C475   H523    1.082   .     S
C476   C477    1.398   .     D
C476   H524    1.083   .     S
C477   C478    1.406   .     S
C478   C479    1.397   .     D
C478   H525    1.082   .     S
C479   H526    1.083   .     S
N480   C481    1.439   .     S
C481   C492    1.399   .     S
C481   C493    1.408   .     D
N482   C483    1.359   .     D
C484   C485    1.404   .     D
C484   C489    1.405   .     S
C485   C486    1.398   .     S
C485   H527    1.082   .     S
C486   C487    1.406   .     D
C486   H528    1.082   .     S
C487   C488    1.407   .     S
C487   C490    1.487   .     S
C488   C489    1.397   .     D
C488   H529    1.082   .     S
C489   H530    1.082   .     S
C490   C491    1.406   .     S
C490   C494    1.407   .     D
C491   C492    1.397   .     D
C491   H531    1.083   .     S
C492   H532    1.083   .     S
C493   C494    1.399   .     S
C493   H533    1.079   .     S
C494   H534    1.083   .     S
O495   C497    1.430   .     S
O496   C498    1.428   .     S
C497   H535    1.109   .     S
C497   H536    1.107   .     S
C497   H537    1.113   .     S
C498   H538    1.108   .     S
C498   H539    1.109   .     S
C498   H540    1.113   .     S
C541   C542    1.406   .     D
C541   C125    1.388   1_565 S
C542   C543    1.422   .     S
C542   C544    1.500   .     S
C543   C126    1.415   1_565 D
C544   C545    1.409   .     D
C544   C549    1.408   .     S
C545   C546    1.394   .     S
C545   H603    1.077   .     S
C546   C547    1.401   .     D
C546   H604    1.083   .     S
C547   C548    1.405   .     S
C547   C550    1.485   .     S
C548   C549    1.399   .     D
C548   H605    1.083   .     S
C549   H606    1.079   .     S
C550   C551    1.407   .     D
C550   C555    1.405   .     S
C551   C552    1.396   .     S
C551   H607    1.083   .     S
C552   C553    1.401   .     D
C552   H608    1.083   .     S
C553   C554    1.405   .     S
C553   C556    1.475   .     S
C554   C555    1.397   .     D
C554   H609    1.083   .     S
C555   H610    1.083   .     S
C556   H611    1.083   .     S
C557   C559    1.403   .     D
C558   C559    1.418   .     S
C559   C560    1.498   .     S
C560   C561    1.408   .     D
C560   C565    1.410   .     S
C561   C562    1.396   .     S
C561   H612    1.079   .     S
C562   C563    1.404   .     D
C562   H613    1.083   .     S
C563   C564    1.402   .     S
C563   C570    1.482   .     S
C564   C565    1.395   .     D
C564   H614    1.083   .     S
C565   H615    1.080   .     S
C566   C567    1.474   .     S
C566   H616    1.080   .     S
C567   C568    1.405   .     D
C567   C572    1.402   .     S
C568   C569    1.397   .     S
C568   H617    1.082   .     S
C569   C570    1.406   .     D
C569   H618    1.082   .     S
C570   C571    1.405   .     S
C571   C572    1.396   .     D
C571   H619    1.082   .     S
C572   H620    1.083   .     S
N573   C585    1.435   .     S
N574   C575    1.358   .     D
C576   C577    1.404   .     D
C576   C581    1.404   .     S
C577   C578    1.396   .     S
C577   H621    1.083   .     S
C578   C579    1.406   .     D
C578   H622    1.083   .     S
C579   C580    1.406   .     S
C579   C582    1.486   .     S
C580   C581    1.397   .     D
C580   H623    1.082   .     S
C581   H624    1.083   .     S
C582   C583    1.407   .     D
C582   C587    1.407   .     S
C583   C584    1.396   .     S
C583   H625    1.082   .     S
C584   C585    1.399   .     D
C584   H626    1.082   .     S
C585   C586    1.407   .     S
C586   C587    1.398   .     D
C586   H627    1.081   .     S
C587   H628    1.083   .     S
N588   C589    1.437   .     S
C589   C600    1.399   .     S
C589   C601    1.409   .     D
N590   C591    1.358   .     D
C592   C593    1.404   .     D
C592   C597    1.404   .     S
C593   C594    1.396   .     S
C593   H629    1.083   .     S
C594   C595    1.406   .     D
C594   H630    1.082   .     S
C595   C596    1.406   .     S
C595   C598    1.485   .     S
C596   C597    1.396   .     D
C596   H631    1.082   .     S
C597   H632    1.083   .     S
C598   C599    1.406   .     S
C598   C602    1.406   .     D
C599   C600    1.396   .     D
C599   H633    1.082   .     S
C600   H634    1.083   .     S
C601   C602    1.396   .     S
C601   H635    1.079   .     S
C602   H636    1.083   .     S
O639   C641    1.427   .     S
O640   C645    1.427   .     S
C641   H642    1.109   .     S
C641   H643    1.108   .     S
C641   H644    1.109   .     S
C645   H646    1.110   .     S
C645   H647    1.109   .     S
C645   H648    1.111   .     S
