data_947
_audit_creation_date              2023-09-08
_audit_creation_method            'Materials Studio'
_symmetry_space_group_name_H-M    'P1'
_symmetry_Int_Tables_number       1
_symmetry_cell_setting            triclinic
loop_
_symmetry_equiv_pos_as_xyz
  x,y,z
_cell_length_a                    99.4913
_cell_length_b                    99.6713
_cell_length_c                    7.0696
_cell_angle_alpha                 90.0000
_cell_angle_beta                  90.0000
_cell_angle_gamma                 120.0000
loop_
_atom_site_label
_atom_site_type_symbol
_atom_site_fract_x
_atom_site_fract_y
_atom_site_fract_z
_atom_site_U_iso_or_equiv
_atom_site_adp_type
_atom_site_occupancy
C11    C     0.35004   0.67604   0.20260   0.00000  Uiso   1.00
C22    C     0.31767   0.65928   0.16371   0.00000  Uiso   1.00
C33    C     0.35163   0.65176   0.17239   0.00000  Uiso   1.00
C44    C     0.34455   0.63605   0.11966   0.00000  Uiso   1.00
C55    C     0.35299   0.62830   0.11869   0.00000  Uiso   1.00
C66    C     0.36871   0.63598   0.17173   0.00000  Uiso   1.00
C77    C     0.37583   0.65168   0.22338   0.00000  Uiso   1.00
C88    C     0.36744   0.65948   0.22301   0.00000  Uiso   1.00
C99    C     0.37759   0.62763   0.17579   0.00000  Uiso   1.00
C1010  C     0.37039   0.61199   0.23115   0.00000  Uiso   1.00
C1111  C     0.37880   0.60423   0.23776   0.00000  Uiso   1.00
C1212  C     0.39459   0.61189   0.19196   0.00000  Uiso   1.00
C1313  C     0.40182   0.62747   0.13348   0.00000  Uiso   1.00
C1414  C     0.39339   0.63522   0.12567   0.00000  Uiso   1.00
C1515  C     0.00861   0.51598   0.06670   0.00000  Uiso   1.00
C1616  C     0.00660   0.49075   0.03278   0.00000  Uiso   1.00
C1717  C     0.01576   0.50704   0.04691   0.00000  Uiso   1.00
C1818  C     0.16810   0.58653   0.03377   0.00000  Uiso   1.00
C1919  C     0.15195   0.57967   0.02696   0.00000  Uiso   1.00
C2020  C     0.14267   0.56357   0.01084   0.00000  Uiso   1.00
C2121  C     0.14959   0.55435   0.00076   0.00000  Uiso   1.00
C2222  C     0.16574   0.56119   0.00761   0.00000  Uiso   1.00
C2323  C     0.17514   0.57732   0.02465   0.00000  Uiso   1.00
C2424  C     0.19215   0.58423   0.03458   0.00000  Uiso   1.00
N2525  N     0.20116   0.59915   0.04722   0.00000  Uiso   1.00
C2626  C     0.12604   0.55648   0.00752   0.00000  Uiso   1.00
C2727  C     0.11209   0.55045   0.00635   0.00000  Uiso   1.00
C2828  C     0.09545   0.54313   0.00690   0.00000  Uiso   1.00
C2929  C     0.08824   0.55197   0.03528   0.00000  Uiso   1.00
C3030  C     0.07205   0.54477   0.03976   0.00000  Uiso   1.00
C3131  C     0.06301   0.52870   0.01597   0.00000  Uiso   1.00
C3232  C     0.07021   0.51987  -0.01344   0.00000  Uiso   1.00
C3333  C     0.08640   0.52707  -0.01798   0.00000  Uiso   1.00
C3434  C     0.04637   0.52121   0.02506   0.00000  Uiso   1.00
C3535  C     0.03243   0.51480   0.03428   0.00000  Uiso   1.00
C3636  C     0.67425   0.32466   0.17685   0.00000  Uiso   1.00
C3737  C     0.65692   0.33979   0.19106   0.00000  Uiso   1.00
C3838  C     0.64774   0.34786   0.19989   0.00000  Uiso   1.00
C3939  C     0.65456   0.36367   0.15316   0.00000  Uiso   1.00
C4040  C     0.64596   0.37124   0.16163   0.00000  Uiso   1.00
C4141  C     0.63032   0.36326   0.21807   0.00000  Uiso   1.00
C4242  C     0.62350   0.34749   0.26522   0.00000  Uiso   1.00
C4343  C     0.63206   0.33988   0.25561   0.00000  Uiso   1.00
C4444  C     0.62119   0.37136   0.22887   0.00000  Uiso   1.00
C4545  C     0.62825   0.38694   0.28615   0.00000  Uiso   1.00
C4646  C     0.61963   0.39448   0.29764   0.00000  Uiso   1.00
C4747  C     0.59669   0.37110   0.19504   0.00000  Uiso   1.00
C4848  C     0.60533   0.36358   0.18199   0.00000  Uiso   1.00
C4949  C     0.49011   0.48359   0.44691   0.00000  Uiso   1.00
C5050  C     0.50619   0.49014   0.43016   0.00000  Uiso   1.00
C5151  C     0.51570   0.50630   0.41456   0.00000  Uiso   1.00
C5252  C     0.58243   0.41490   0.29924   0.00000  Uiso   1.00
C5353  C     0.57540   0.42398   0.31479   0.00000  Uiso   1.00
C5454  C     0.55925   0.41694   0.32960   0.00000  Uiso   1.00
C5555  C     0.55014   0.40077   0.32878   0.00000  Uiso   1.00
C5656  C     0.55715   0.39167   0.31326   0.00000  Uiso   1.00
C5757  C     0.57334   0.39863   0.29835   0.00000  Uiso   1.00
C5858  C     0.58047   0.38878   0.28219   0.00000  Uiso   1.00
N5959  N     0.59545   0.39490   0.27200   0.00000  Uiso   1.00
C6060  C     0.55205   0.42631   0.34528   0.00000  Uiso   1.00
C6161  C     0.54608   0.43422   0.35816   0.00000  Uiso   1.00
C6262  C     0.53905   0.44376   0.37322   0.00000  Uiso   1.00
C6363  C     0.54832   0.45969   0.40561   0.00000  Uiso   1.00
C6464  C     0.54153   0.46900   0.41932   0.00000  Uiso   1.00
C6565  C     0.52543   0.46240   0.40072   0.00000  Uiso   1.00
C6666  C     0.51615   0.44646   0.36837   0.00000  Uiso   1.00
C6767  C     0.52295   0.43715   0.35473   0.00000  Uiso   1.00
C6868  C     0.51850   0.47203   0.41306   0.00000  Uiso   1.00
C6969  C     0.51282   0.48022   0.42202   0.00000  Uiso   1.00
C7070  C     0.60377   0.38662   0.25528   0.00000  Uiso   1.00
O7171  O     0.46725   0.98588   0.55409   0.00000  Uiso   1.00
C7272  C     0.45877   0.98230   0.72691   0.00000  Uiso   1.00
O7373  O     0.53172   0.51291   0.38822   0.00000  Uiso   1.00
C7474  C     0.54014   0.51631   0.56139   0.00000  Uiso   1.00
C7575  C     0.32551   0.67537   0.19043   0.00000  Uiso   1.00
C7676  C     0.34258   0.65996   0.17675   0.00000  Uiso   1.00
C7777  C     0.34983   0.70099   0.23741   0.00000  Uiso   1.00
C7878  C     0.36585   0.71011   0.20266   0.00000  Uiso   1.00
C7979  C     0.37347   0.72617   0.22562   0.00000  Uiso   1.00
C8080  C     0.36533   0.73356   0.28574   0.00000  Uiso   1.00
C8181  C     0.34934   0.72443   0.32237   0.00000  Uiso   1.00
C8282  C     0.34168   0.70838   0.29750   0.00000  Uiso   1.00
C8383  C     0.37346   0.75069   0.31051   0.00000  Uiso   1.00
C8484  C     0.38897   0.75889   0.37251   0.00000  Uiso   1.00
C8585  C     0.39657   0.77495   0.39544   0.00000  Uiso   1.00
C8686  C     0.38885   0.78317   0.36011   0.00000  Uiso   1.00
C8787  C     0.37340   0.77510   0.29565   0.00000  Uiso   1.00
C8888  C     0.36582   0.75904   0.27097   0.00000  Uiso   1.00
C8989  C     0.48342   0.49298   0.44249   0.00000  Uiso   1.00
C9090  C     0.50904   0.51584   0.41211   0.00000  Uiso   1.00
C9191  C     0.49273   0.50904   0.42207   0.00000  Uiso   1.00
C9292  C     0.41509   0.58285   0.23093   0.00000  Uiso   1.00
C9393  C     0.42183   0.57351   0.24784   0.00000  Uiso   1.00
C9494  C     0.43798   0.58027   0.25633   0.00000  Uiso   1.00
C9595  C     0.44738   0.59638   0.24710   0.00000  Uiso   1.00
C9696  C     0.44067   0.60574   0.23016   0.00000  Uiso   1.00
C9797  C     0.42447   0.59907   0.22236   0.00000  Uiso   1.00
C9898  C     0.41765   0.60920   0.20707   0.00000  Uiso   1.00
N9999  N     0.40269   0.60337   0.20466   0.00000  Uiso   1.00
C100100 C     0.44492   0.57069   0.27602   0.00000  Uiso   1.00
C101101 C     0.45082   0.56274   0.29327   0.00000  Uiso   1.00
C102102 C     0.45797   0.55337   0.31469   0.00000  Uiso   1.00
C103103 C     0.44894   0.53719   0.30789   0.00000  Uiso   1.00
C104104 C     0.45594   0.52812   0.32969   0.00000  Uiso   1.00
C105105 C     0.47198   0.53521   0.35858   0.00000  Uiso   1.00
C106106 C     0.48101   0.55138   0.36508   0.00000  Uiso   1.00
C107107 C     0.47402   0.56045   0.34320   0.00000  Uiso   1.00
C108108 C     0.47920   0.52591   0.38156   0.00000  Uiso   1.00
C109109 C     0.48534   0.51821   0.40054   0.00000  Uiso   1.00
C110110 C     0.67306   0.34820   0.16636   0.00000  Uiso   1.00
C111111 C     0.65813   0.31589   0.20144   0.00000  Uiso   1.00
C112112 C     0.65024   0.29872   0.21980   0.00000  Uiso   1.00
C113113 C     0.63465   0.29012   0.27835   0.00000  Uiso   1.00
C114114 C     0.62727   0.27401   0.29516   0.00000  Uiso   1.00
C115115 C     0.63520   0.26603   0.25239   0.00000  Uiso   1.00
C116116 C     0.65076   0.27460   0.19366   0.00000  Uiso   1.00
C117117 C     0.65819   0.29070   0.17822   0.00000  Uiso   1.00
C118118 C     0.62733   0.24886   0.26964   0.00000  Uiso   1.00
C119119 C     0.61148   0.23958   0.22633   0.00000  Uiso   1.00
C120120 C     0.60409   0.22348   0.24400   0.00000  Uiso   1.00
C121121 C     0.62821   0.22548   0.34674   0.00000  Uiso   1.00
C122122 C     0.63559   0.24159   0.33031   0.00000  Uiso   1.00
C123123 C     0.51566   0.00702   0.60909   0.00000  Uiso   1.00
C124124 C     0.50875   0.01620   0.58816   0.00000  Uiso   1.00
C125125 C     0.49242   0.00914   0.57799   0.00000  Uiso   1.00
C126126 C     0.58409   0.16687   0.36858   0.00000  Uiso   1.00
C127127 C     0.57499   0.15084   0.39141   0.00000  Uiso   1.00
C128128 C     0.58201   0.14172   0.40487   0.00000  Uiso   1.00
C129129 C     0.59818   0.14869   0.39508   0.00000  Uiso   1.00
C130130 C     0.60731   0.16473   0.37229   0.00000  Uiso   1.00
C131131 C     0.60035   0.17396   0.35887   0.00000  Uiso   1.00
C132132 C     0.61023   0.19088   0.33614   0.00000  Uiso   1.00
N133133 N     0.60410   0.19968   0.32092   0.00000  Uiso   1.00
C134134 C     0.57262   0.12524   0.42929   0.00000  Uiso   1.00
C135135 C     0.56468   0.11144   0.44990   0.00000  Uiso   1.00
C136136 C     0.55511   0.09497   0.47458   0.00000  Uiso   1.00
C137137 C     0.53892   0.08810   0.46977   0.00000  Uiso   1.00
C138138 C     0.52959   0.07210   0.49354   0.00000  Uiso   1.00
C139139 C     0.53640   0.06291   0.52232   0.00000  Uiso   1.00
C140140 C     0.55259   0.06977   0.52706   0.00000  Uiso   1.00
C141141 C     0.56193   0.08579   0.50334   0.00000  Uiso   1.00
C142142 C     0.52677   0.04646   0.54649   0.00000  Uiso   1.00
C143143 C     0.51859   0.03268   0.56610   0.00000  Uiso   1.00
C144144 C     0.61236   0.21626   0.30223   0.00000  Uiso   1.00
O145145 O     0.01321   0.48136   0.00066   0.00000  Uiso   1.00
C146146 C     0.02371   0.48183   0.14222   0.00000  Uiso   1.00
O147147 O     0.48499   0.01778   0.54590   0.00000  Uiso   1.00
C148148 C     0.48749   0.02919   0.68541   0.00000  Uiso   1.00
C149149 C     0.32639   0.65177   0.15744   0.00000  Uiso   1.00
C150150 C     0.34168   0.68392   0.20990   0.00000  Uiso   1.00
C151151 C     0.30047   0.65035   0.14377   0.00000  Uiso   1.00
C152152 C     0.29144   0.65724   0.18510   0.00000  Uiso   1.00
C153153 C     0.27529   0.64880   0.16892   0.00000  Uiso   1.00
C154154 C     0.26770   0.63325   0.10969   0.00000  Uiso   1.00
C155155 C     0.27670   0.62638   0.06696   0.00000  Uiso   1.00
C156156 C     0.29284   0.63478   0.08446   0.00000  Uiso   1.00
C157157 C     0.25049   0.62425   0.09271   0.00000  Uiso   1.00
C158158 C     0.24214   0.63148   0.03410   0.00000  Uiso   1.00
C159159 C     0.22597   0.62305   0.02056   0.00000  Uiso   1.00
C160160 C     0.21779   0.60721   0.06192   0.00000  Uiso   1.00
C161161 C     0.22604   0.59992   0.12186   0.00000  Uiso   1.00
C162162 C     0.24221   0.60837   0.13713   0.00000  Uiso   1.00
C163163 C     0.50654   0.99093   0.61436   0.00000  Uiso   1.00
C164164 C     0.48331   0.99291   0.58101   0.00000  Uiso   1.00
C165165 C     0.49042   0.98381   0.59769   0.00000  Uiso   1.00
C166166 C     0.41730   0.83247   0.43492   0.00000  Uiso   1.00
C167167 C     0.42644   0.84850   0.45874   0.00000  Uiso   1.00
C168168 C     0.41942   0.85755   0.48113   0.00000  Uiso   1.00
C169169 C     0.40323   0.85053   0.47987   0.00000  Uiso   1.00
C170170 C     0.39407   0.83451   0.45606   0.00000  Uiso   1.00
C171171 C     0.40101   0.82534   0.43310   0.00000  Uiso   1.00
C172172 C     0.39110   0.80846   0.40699   0.00000  Uiso   1.00
N173173 N     0.39720   0.79966   0.38784   0.00000  Uiso   1.00
C174174 C     0.42882   0.87405   0.50373   0.00000  Uiso   1.00
C175175 C     0.43667   0.88790   0.52154   0.00000  Uiso   1.00
C176176 C     0.44598   0.90443   0.54120   0.00000  Uiso   1.00
C177177 C     0.46204   0.91138   0.56818   0.00000  Uiso   1.00
C178178 C     0.47113   0.92749   0.58352   0.00000  Uiso   1.00
C179179 C     0.46418   0.93669   0.57207   0.00000  Uiso   1.00
C180180 C     0.44811   0.92974   0.54611   0.00000  Uiso   1.00
C181181 C     0.43903   0.91364   0.53069   0.00000  Uiso   1.00
C182182 C     0.47352   0.95327   0.58363   0.00000  Uiso   1.00
C183183 C     0.48127   0.96718   0.59124   0.00000  Uiso   1.00
C184184 C     0.64965   0.32364   0.20835   0.00000  Uiso   1.00
C185185 C     0.68189   0.34081   0.15895   0.00000  Uiso   1.00
C186186 C     0.69903   0.34994   0.13521   0.00000  Uiso   1.00
C187187 C     0.70830   0.34327   0.17427   0.00000  Uiso   1.00
C188188 C     0.72443   0.35195   0.15703   0.00000  Uiso   1.00
C189189 C     0.73175   0.36751   0.09860   0.00000  Uiso   1.00
C190190 C     0.72250   0.37412   0.05678   0.00000  Uiso   1.00
C191191 C     0.70638   0.36549   0.07573   0.00000  Uiso   1.00
C192192 C     0.74896   0.37682   0.08295   0.00000  Uiso   1.00
C193193 C     0.75762   0.36992   0.02469   0.00000  Uiso   1.00
C194194 C     0.77378   0.37865   0.01276   0.00000  Uiso   1.00
C195195 C     0.77307   0.40143   0.11561   0.00000  Uiso   1.00
C196196 C     0.75691   0.39268   0.12902   0.00000  Uiso   1.00
C197197 C     0.99249   0.50896   0.06786   0.00000  Uiso   1.00
C198198 C     0.98328   0.49290   0.04904   0.00000  Uiso   1.00
C199199 C     0.99033   0.48367   0.03385   0.00000  Uiso   1.00
C200200 C     0.83139   0.41606   0.03196   0.00000  Uiso   1.00
C201201 C     0.84756   0.42319   0.02748   0.00000  Uiso   1.00
C202202 C     0.85662   0.43933   0.01585   0.00000  Uiso   1.00
C203203 C     0.84945   0.44833   0.00782   0.00000  Uiso   1.00
C204204 C     0.83327   0.44122   0.01229   0.00000  Uiso   1.00
C205205 C     0.82409   0.42504   0.02491   0.00000  Uiso   1.00
C206206 C     0.80705   0.41781   0.03268   0.00000  Uiso   1.00
N207207 N     0.79828   0.40285   0.04280   0.00000  Uiso   1.00
C208208 C     0.87326   0.44664   0.01459   0.00000  Uiso   1.00
C209209 C     0.88720   0.45268   0.01482   0.00000  Uiso   1.00
C210210 C     0.90383   0.45979   0.01648   0.00000  Uiso   1.00
C211211 C     0.91078   0.45068  -0.00895   0.00000  Uiso   1.00
C212212 C     0.92693   0.45753  -0.00487   0.00000  Uiso   1.00
C213213 C     0.93620   0.47350   0.02471   0.00000  Uiso   1.00
C214214 C     0.92926   0.48262   0.04963   0.00000  Uiso   1.00
C215215 C     0.91310   0.47577   0.04550   0.00000  Uiso   1.00
C216216 C     0.95280   0.48047   0.03174   0.00000  Uiso   1.00
C217217 C     0.96669   0.48618   0.03890   0.00000  Uiso   1.00
C218218 C     0.78164   0.39447   0.05572   0.00000  Uiso   1.00
O219219 O     0.51881   0.53179   0.38125   0.00000  Uiso   1.00
C220220 C     0.51841   0.54185   0.52257   0.00000  Uiso   1.00
O221221 O     0.98158   0.46760   0.00363   0.00000  Uiso   1.00
C222222 C     0.97073   0.45877   0.14895   0.00000  Uiso   1.00
C223223 C     0.35074   0.67606   0.70266   0.00000  Uiso   1.00
C224224 C     0.31838   0.65921   0.66334   0.00000  Uiso   1.00
C225225 C     0.35240   0.65179   0.67333   0.00000  Uiso   1.00
C226226 C     0.34534   0.63607   0.62109   0.00000  Uiso   1.00
C227227 C     0.35380   0.62834   0.62012   0.00000  Uiso   1.00
C228228 C     0.36954   0.63606   0.67235   0.00000  Uiso   1.00
C229229 C     0.37663   0.65176   0.72390   0.00000  Uiso   1.00
C230230 C     0.36821   0.65953   0.72378   0.00000  Uiso   1.00
C231231 C     0.37848   0.62776   0.67529   0.00000  Uiso   1.00
C232232 C     0.37135   0.61212   0.73050   0.00000  Uiso   1.00
C233233 C     0.37984   0.60443   0.73664   0.00000  Uiso   1.00
C234234 C     0.39563   0.61217   0.69070   0.00000  Uiso   1.00
C235235 C     0.40277   0.62773   0.63192   0.00000  Uiso   1.00
C236236 C     0.39426   0.63541   0.62437   0.00000  Uiso   1.00
C237237 C     0.00973   0.51845   0.53452   0.00000  Uiso   1.00
C238238 C     0.00780   0.49322   0.56601   0.00000  Uiso   1.00
C239239 C     0.01691   0.50931   0.54763   0.00000  Uiso   1.00
C240240 C     0.16882   0.58565   0.53365   0.00000  Uiso   1.00
C241241 C     0.15266   0.57865   0.52651   0.00000  Uiso   1.00
C242242 C     0.14351   0.56254   0.51018   0.00000  Uiso   1.00
C243243 C     0.15058   0.55345   0.50013   0.00000  Uiso   1.00
C244244 C     0.16674   0.56043   0.50726   0.00000  Uiso   1.00
C245245 C     0.17600   0.57658   0.52461   0.00000  Uiso   1.00
C246246 C     0.19303   0.58366   0.53505   0.00000  Uiso   1.00
N247247 N     0.20189   0.59858   0.54914   0.00000  Uiso   1.00
C248248 C     0.12688   0.55536   0.50658   0.00000  Uiso   1.00
C249249 C     0.11295   0.54942   0.50528   0.00000  Uiso   1.00
C250250 C     0.09634   0.54245   0.50590   0.00000  Uiso   1.00
C251251 C     0.08956   0.55167   0.53463   0.00000  Uiso   1.00
C252252 C     0.07341   0.54490   0.53961   0.00000  Uiso   1.00
C253253 C     0.06398   0.52887   0.51575   0.00000  Uiso   1.00
C254254 C     0.07075   0.51966   0.48576   0.00000  Uiso   1.00
C255255 C     0.08691   0.52644   0.48091   0.00000  Uiso   1.00
C256256 C     0.04739   0.52190   0.52521   0.00000  Uiso   1.00
C257257 C     0.03350   0.51614   0.53481   0.00000  Uiso   1.00
C258258 C     0.67496   0.32466   0.67628   0.00000  Uiso   1.00
C259259 C     0.65771   0.33989   0.68978   0.00000  Uiso   1.00
C260260 C     0.64855   0.34797   0.69836   0.00000  Uiso   1.00
C261261 C     0.65536   0.36376   0.65120   0.00000  Uiso   1.00
C262262 C     0.64677   0.37133   0.65974   0.00000  Uiso   1.00
C263263 C     0.63115   0.36337   0.71702   0.00000  Uiso   1.00
C264264 C     0.62432   0.34761   0.76430   0.00000  Uiso   1.00
C265265 C     0.63287   0.33999   0.75436   0.00000  Uiso   1.00
C266266 C     0.62205   0.37149   0.72890   0.00000  Uiso   1.00
C267267 C     0.62915   0.38707   0.78628   0.00000  Uiso   1.00
C268268 C     0.62057   0.39465   0.79826   0.00000  Uiso   1.00
C269269 C     0.59757   0.37130   0.69613   0.00000  Uiso   1.00
C270270 C     0.60617   0.36374   0.68279   0.00000  Uiso   1.00
C271271 C     0.48827   0.48107   0.91543   0.00000  Uiso   1.00
C272272 C     0.50457   0.48805   0.93120   0.00000  Uiso   1.00
C273273 C     0.51369   0.50414   0.94827   0.00000  Uiso   1.00
C274274 C     0.58362   0.41531   0.79872   0.00000  Uiso   1.00
C275275 C     0.57667   0.42447   0.81426   0.00000  Uiso   1.00
C276276 C     0.56053   0.41750   0.82917   0.00000  Uiso   1.00
C277277 C     0.55134   0.40134   0.82829   0.00000  Uiso   1.00
C278278 C     0.55826   0.39216   0.81272   0.00000  Uiso   1.00
C279279 C     0.57445   0.39905   0.79787   0.00000  Uiso   1.00
C280280 C     0.58149   0.38912   0.78199   0.00000  Uiso   1.00
N281281 N     0.59646   0.39518   0.77240   0.00000  Uiso   1.00
C282282 C     0.55338   0.42691   0.84509   0.00000  Uiso   1.00
C283283 C     0.54734   0.43476   0.85812   0.00000  Uiso   1.00
C284284 C     0.54004   0.44404   0.87308   0.00000  Uiso   1.00
C285285 C     0.54904   0.46002   0.90481   0.00000  Uiso   1.00
C286286 C     0.54192   0.46904   0.91772   0.00000  Uiso   1.00
C287287 C     0.52579   0.46211   0.89895   0.00000  Uiso   1.00
C288288 C     0.51680   0.44613   0.86769   0.00000  Uiso   1.00
C289289 C     0.52391   0.43711   0.85479   0.00000  Uiso   1.00
C290290 C     0.51845   0.47137   0.91086   0.00000  Uiso   1.00
C291291 C     0.51217   0.47901   0.92035   0.00000  Uiso   1.00
C292292 C     0.60472   0.38683   0.75608   0.00000  Uiso   1.00
C293293 C     0.32617   0.67529   0.68971   0.00000  Uiso   1.00
C294294 C     0.34332   0.65997   0.67721   0.00000  Uiso   1.00
C295295 C     0.35037   0.70096   0.73663   0.00000  Uiso   1.00
C296296 C     0.36638   0.71019   0.70214   0.00000  Uiso   1.00
C297297 C     0.37388   0.72624   0.72518   0.00000  Uiso   1.00
C298298 C     0.36562   0.73352   0.78508   0.00000  Uiso   1.00
C299299 C     0.34964   0.72428   0.82127   0.00000  Uiso   1.00
C300300 C     0.34210   0.70824   0.79632   0.00000  Uiso   1.00
C301301 C     0.37361   0.75064   0.81016   0.00000  Uiso   1.00
C302302 C     0.38910   0.75895   0.87267   0.00000  Uiso   1.00
C303303 C     0.39656   0.77501   0.89571   0.00000  Uiso   1.00
C304304 C     0.38872   0.78311   0.86007   0.00000  Uiso   1.00
C305305 C     0.37329   0.77492   0.79518   0.00000  Uiso   1.00
C306306 C     0.36585   0.75887   0.77038   0.00000  Uiso   1.00
C307307 C     0.48138   0.49040   0.91091   0.00000  Uiso   1.00
C308308 C     0.50686   0.51339   0.94326   0.00000  Uiso   1.00
C309309 C     0.49080   0.50668   0.92166   0.00000  Uiso   1.00
C310310 C     0.41646   0.58341   0.73125   0.00000  Uiso   1.00
C311311 C     0.42330   0.57417   0.74846   0.00000  Uiso   1.00
C312312 C     0.43946   0.58102   0.75708   0.00000  Uiso   1.00
C313313 C     0.44878   0.59715   0.74768   0.00000  Uiso   1.00
C314314 C     0.44196   0.60641   0.73050   0.00000  Uiso   1.00
C315315 C     0.42575   0.59964   0.72253   0.00000  Uiso   1.00
C316316 C     0.41881   0.60968   0.70682   0.00000  Uiso   1.00
N317317 N     0.40384   0.60374   0.70385   0.00000  Uiso   1.00
C318318 C     0.44646   0.57149   0.77701   0.00000  Uiso   1.00
C319319 C     0.45224   0.56344   0.79437   0.00000  Uiso   1.00
C320320 C     0.45902   0.55373   0.81569   0.00000  Uiso   1.00
C321321 C     0.44959   0.53759   0.80900   0.00000  Uiso   1.00
C322322 C     0.45614   0.52812   0.83053   0.00000  Uiso   1.00
C323323 C     0.47215   0.53475   0.85892   0.00000  Uiso   1.00
C324324 C     0.48159   0.55089   0.86530   0.00000  Uiso   1.00
C325325 C     0.47504   0.56037   0.84383   0.00000  Uiso   1.00
C326326 C     0.47883   0.52498   0.88160   0.00000  Uiso   1.00
C327327 C     0.48432   0.51668   0.90027   0.00000  Uiso   1.00
C328328 C     0.67385   0.34826   0.66556   0.00000  Uiso   1.00
C329329 C     0.65883   0.31594   0.70041   0.00000  Uiso   1.00
C330330 C     0.65081   0.29877   0.71883   0.00000  Uiso   1.00
C331331 C     0.63521   0.29029   0.77715   0.00000  Uiso   1.00
C332332 C     0.62768   0.27419   0.79417   0.00000  Uiso   1.00
C333333 C     0.63548   0.26606   0.75177   0.00000  Uiso   1.00
C334334 C     0.65105   0.27450   0.69330   0.00000  Uiso   1.00
C335335 C     0.65863   0.29062   0.67763   0.00000  Uiso   1.00
C336336 C     0.62742   0.24889   0.76905   0.00000  Uiso   1.00
C337337 C     0.61155   0.23977   0.72539   0.00000  Uiso   1.00
C338338 C     0.60398   0.22366   0.74308   0.00000  Uiso   1.00
C339339 C     0.62793   0.22532   0.84650   0.00000  Uiso   1.00
C340340 C     0.63550   0.24145   0.83010   0.00000  Uiso   1.00
C341341 C     0.51713   0.00642   1.07784   0.00000  Uiso   1.00
C342342 C     0.51024   0.01583   1.08813   0.00000  Uiso   1.00
C343343 C     0.49415   0.00898   1.10916   0.00000  Uiso   1.00
C344344 C     0.58323   0.16693   0.86849   0.00000  Uiso   1.00
C345345 C     0.57395   0.15090   0.89125   0.00000  Uiso   1.00
C346346 C     0.58080   0.14163   0.90492   0.00000  Uiso   1.00
C347347 C     0.59695   0.14842   0.89542   0.00000  Uiso   1.00
C348348 C     0.60624   0.16444   0.87265   0.00000  Uiso   1.00
C349349 C     0.59948   0.17384   0.85901   0.00000  Uiso   1.00
C350350 C     0.60955   0.19073   0.83625   0.00000  Uiso   1.00
N351351 N     0.60361   0.19969   0.82053   0.00000  Uiso   1.00
C352352 C     0.57128   0.12516   0.92921   0.00000  Uiso   1.00
C353353 C     0.56340   0.11134   0.94973   0.00000  Uiso   1.00
C354354 C     0.55413   0.09485   0.97444   0.00000  Uiso   1.00
C355355 C     0.53791   0.08758   0.96933   0.00000  Uiso   1.00
C356356 C     0.52893   0.07153   0.99316   0.00000  Uiso   1.00
C357357 C     0.53616   0.06272   1.02241   0.00000  Uiso   1.00
C358358 C     0.55237   0.07000   1.02747   0.00000  Uiso   1.00
C359359 C     0.56135   0.08603   1.00355   0.00000  Uiso   1.00
C360360 C     0.52696   0.04622   1.04652   0.00000  Uiso   1.00
C361361 C     0.51933   0.03238   1.06609   0.00000  Uiso   1.00
C362362 C     0.61207   0.21627   0.80169   0.00000  Uiso   1.00
C363363 C     0.32713   0.65174   0.65768   0.00000  Uiso   1.00
C364364 C     0.34233   0.68389   0.70938   0.00000  Uiso   1.00
C365365 C     0.30118   0.65026   0.64315   0.00000  Uiso   1.00
C366366 C     0.29213   0.65712   0.68459   0.00000  Uiso   1.00
C367367 C     0.27598   0.64865   0.66884   0.00000  Uiso   1.00
C368368 C     0.26842   0.63310   0.60979   0.00000  Uiso   1.00
C369369 C     0.27744   0.62627   0.56627   0.00000  Uiso   1.00
C370370 C     0.29359   0.63470   0.58354   0.00000  Uiso   1.00
C371371 C     0.25120   0.62403   0.59435   0.00000  Uiso   1.00
C372372 C     0.24275   0.63117   0.53656   0.00000  Uiso   1.00
C373373 C     0.22658   0.62263   0.52334   0.00000  Uiso   1.00
C374374 C     0.21851   0.60679   0.56451   0.00000  Uiso   1.00
C375375 C     0.22687   0.59960   0.62453   0.00000  Uiso   1.00
C376376 C     0.24303   0.60815   0.63925   0.00000  Uiso   1.00
C377377 C     0.50764   0.99022   1.08095   0.00000  Uiso   1.00
C378378 C     0.48482   0.99290   1.11446   0.00000  Uiso   1.00
C379379 C     0.49146   0.98349   1.09767   0.00000  Uiso   1.00
C380380 C     0.41677   0.83244   0.93512   0.00000  Uiso   1.00
C381381 C     0.42578   0.84847   0.95890   0.00000  Uiso   1.00
C382382 C     0.41863   0.85741   0.98103   0.00000  Uiso   1.00
C383383 C     0.40243   0.85026   0.97964   0.00000  Uiso   1.00
C384384 C     0.39340   0.83423   0.95590   0.00000  Uiso   1.00
C385385 C     0.40047   0.82517   0.93312   0.00000  Uiso   1.00
C386386 C     0.39069   0.80828   0.90696   0.00000  Uiso   1.00
N387387 N     0.39693   0.79960   0.88795   0.00000  Uiso   1.00
C388388 C     0.42794   0.87392   1.00345   0.00000  Uiso   1.00
C389389 C     0.43580   0.88776   1.02112   0.00000  Uiso   1.00
C390390 C     0.44526   0.90428   1.04073   0.00000  Uiso   1.00
C391391 C     0.46129   0.91103   1.06834   0.00000  Uiso   1.00
C392392 C     0.47055   0.92711   1.08386   0.00000  Uiso   1.00
C393393 C     0.46382   0.93651   1.07182   0.00000  Uiso   1.00
C394394 C     0.44778   0.92977   1.04509   0.00000  Uiso   1.00
C395395 C     0.43851   0.91368   1.02964   0.00000  Uiso   1.00
C396396 C     0.47342   0.95306   1.08342   0.00000  Uiso   1.00
C397397 C     0.48158   0.96693   1.09114   0.00000  Uiso   1.00
C398398 C     0.65040   0.32374   0.70696   0.00000  Uiso   1.00
C399399 C     0.68265   0.34083   0.65853   0.00000  Uiso   1.00
C400400 C     0.69980   0.34994   0.63526   0.00000  Uiso   1.00
C401401 C     0.70905   0.34325   0.67420   0.00000  Uiso   1.00
C402402 C     0.72518   0.35191   0.65672   0.00000  Uiso   1.00
C403403 C     0.73253   0.36747   0.59832   0.00000  Uiso   1.00
C404404 C     0.72330   0.37412   0.55723   0.00000  Uiso   1.00
C405405 C     0.70718   0.36551   0.57622   0.00000  Uiso   1.00
C406406 C     0.74973   0.37674   0.58147   0.00000  Uiso   1.00
C407407 C     0.75832   0.36977   0.52243   0.00000  Uiso   1.00
C408408 C     0.77448   0.37843   0.51027   0.00000  Uiso   1.00
C409409 C     0.77393   0.40128   0.61340   0.00000  Uiso   1.00
C410410 C     0.75777   0.39260   0.62727   0.00000  Uiso   1.00
C411411 C     0.99345   0.51117   0.53337   0.00000  Uiso   1.00
C412412 C     0.98443   0.49496   0.54794   0.00000  Uiso   1.00
C413413 C     0.99166   0.48608   0.56628   0.00000  Uiso   1.00
C414414 C     0.83219   0.41549   0.53186   0.00000  Uiso   1.00
C415415 C     0.84836   0.42252   0.52740   0.00000  Uiso   1.00
C416416 C     0.85752   0.43866   0.51582   0.00000  Uiso   1.00
C417417 C     0.85044   0.44775   0.50799   0.00000  Uiso   1.00
C418418 C     0.83427   0.44075   0.51247   0.00000  Uiso   1.00
C419419 C     0.82500   0.42457   0.52487   0.00000  Uiso   1.00
C420420 C     0.80796   0.41747   0.53233   0.00000  Uiso   1.00
N421421 N     0.79908   0.40252   0.54110   0.00000  Uiso   1.00
C422422 C     0.87416   0.44590   0.51433   0.00000  Uiso   1.00
C423423 C     0.88811   0.45202   0.51442   0.00000  Uiso   1.00
C424424 C     0.90476   0.45939   0.51621   0.00000  Uiso   1.00
C425425 C     0.91203   0.45058   0.49067   0.00000  Uiso   1.00
C426426 C     0.92822   0.45774   0.49556   0.00000  Uiso   1.00
C427427 C     0.93719   0.47373   0.52613   0.00000  Uiso   1.00
C428428 C     0.92993   0.48255   0.55078   0.00000  Uiso   1.00
C429429 C     0.91374   0.47540   0.54585   0.00000  Uiso   1.00
C430430 C     0.95382   0.48110   0.53364   0.00000  Uiso   1.00
C431431 C     0.96777   0.48736   0.54034   0.00000  Uiso   1.00
C432432 C     0.78243   0.39424   0.55350   0.00000  Uiso   1.00
O433433 O     0.46531   0.48319   0.87861   0.00000  Uiso   1.00
C434434 C     0.45647   0.48582   1.01808   0.00000  Uiso   1.00
O435435 O     0.47872   0.46505   0.88686   0.00000  Uiso   1.00
C436436 C     0.47903   0.45522   1.03207   0.00000  Uiso   1.00
O437437 O     1.01832   0.53452   0.50455   0.00000  Uiso   1.00
C438438 C     1.02927   0.54341   0.64873   0.00000  Uiso   1.00
O439439 O     0.98634   0.52009   0.50548   0.00000  Uiso   1.00
C440440 C     0.98248   0.52479   0.67782   0.00000  Uiso   1.00
O441441 O     0.53310   1.01267   1.04536   0.00000  Uiso   1.00
C442442 C     0.54328   1.02334   1.18440   0.00000  Uiso   1.00
O443443 O     0.51431   0.98089   1.05421   0.00000  Uiso   1.00
C444444 C     0.51804   0.97615   1.22716   0.00000  Uiso   1.00
H445445 H     0.33249   0.62972   0.07728   0.00000  Uiso   1.00
H446446 H     0.34722   0.61632   0.07378   0.00000  Uiso   1.00
H447447 H     0.38782   0.65789   0.26886   0.00000  Uiso   1.00
H448448 H     0.37332   0.67150   0.26627   0.00000  Uiso   1.00
H449449 H     0.35833   0.60583   0.27373   0.00000  Uiso   1.00
H450450 H     0.37306   0.59223   0.28248   0.00000  Uiso   1.00
H451451 H     0.41383   0.63365   0.08985   0.00000  Uiso   1.00
H452452 H     0.39920   0.64711   0.07688   0.00000  Uiso   1.00
H453453 H     0.01552   0.52847   0.07950   0.00000  Uiso   1.00
H454454 H     0.17505   0.59899   0.04721   0.00000  Uiso   1.00
H455455 H     0.14669   0.58690   0.03525   0.00000  Uiso   1.00
H456456 H     0.14251   0.54188  -0.01162   0.00000  Uiso   1.00
H457457 H     0.17090   0.55387   0.00028   0.00000  Uiso   1.00
H458458 H     0.19696   0.57662   0.02764   0.00000  Uiso   1.00
H459459 H     0.09514   0.56439   0.05521   0.00000  Uiso   1.00
H460460 H     0.06658   0.55168   0.06313   0.00000  Uiso   1.00
H461461 H     0.06333   0.50744  -0.03206   0.00000  Uiso   1.00
H462462 H     0.09185   0.52013  -0.04002   0.00000  Uiso   1.00
H463463 H     0.66653   0.37022   0.10751   0.00000  Uiso   1.00
H464464 H     0.65153   0.38330   0.12045   0.00000  Uiso   1.00
H465465 H     0.61159   0.34106   0.31354   0.00000  Uiso   1.00
H466466 H     0.62639   0.32777   0.29490   0.00000  Uiso   1.00
H467467 H     0.64037   0.39325   0.32617   0.00000  Uiso   1.00
H468468 H     0.62527   0.40644   0.34344   0.00000  Uiso   1.00
H469469 H     0.58462   0.36480   0.15358   0.00000  Uiso   1.00
H470470 H     0.59962   0.35175   0.13148   0.00000  Uiso   1.00
H471471 H     0.48271   0.47117   0.46091   0.00000  Uiso   1.00
H472472 H     0.59495   0.42060   0.28782   0.00000  Uiso   1.00
H473473 H     0.58256   0.43649   0.31516   0.00000  Uiso   1.00
H474474 H     0.53763   0.39521   0.34020   0.00000  Uiso   1.00
H475475 H     0.54991   0.37917   0.31293   0.00000  Uiso   1.00
H476476 H     0.57295   0.37633   0.28406   0.00000  Uiso   1.00
H477477 H     0.56078   0.46491   0.42021   0.00000  Uiso   1.00
H478478 H     0.54880   0.48132   0.44434   0.00000  Uiso   1.00
H479479 H     0.50369   0.44127   0.35309   0.00000  Uiso   1.00
H480480 H     0.51568   0.42485   0.32918   0.00000  Uiso   1.00
H481481 H     0.46055   0.97392   0.81155   0.00000  Uiso   1.00
H482482 H     0.44623   0.97693   0.69410   0.00000  Uiso   1.00
H483483 H     0.46233   0.99302   0.81035   0.00000  Uiso   1.00
H484484 H     0.55269   0.52163   0.52910   0.00000  Uiso   1.00
H485485 H     0.53652   0.50555   0.64398   0.00000  Uiso   1.00
H486486 H     0.53838   0.52468   0.64670   0.00000  Uiso   1.00
H487487 H     0.37251   0.70490   0.15388   0.00000  Uiso   1.00
H488488 H     0.38571   0.73280   0.19213   0.00000  Uiso   1.00
H489489 H     0.34274   0.72963   0.37370   0.00000  Uiso   1.00
H490490 H     0.32939   0.70175   0.32844   0.00000  Uiso   1.00
H491491 H     0.39519   0.75289   0.40713   0.00000  Uiso   1.00
H492492 H     0.40848   0.78100   0.44443   0.00000  Uiso   1.00
H493493 H     0.36723   0.78110   0.25936   0.00000  Uiso   1.00
H494494 H     0.35408   0.75324   0.21674   0.00000  Uiso   1.00
H495495 H     0.47092   0.48767   0.45242   0.00000  Uiso   1.00
H496496 H     0.40256   0.57737   0.22518   0.00000  Uiso   1.00
H497497 H     0.41445   0.56104   0.25494   0.00000  Uiso   1.00
H498498 H     0.45990   0.60172   0.25362   0.00000  Uiso   1.00
H499499 H     0.44812   0.61819   0.22381   0.00000  Uiso   1.00
H500500 H     0.42540   0.62160   0.20400   0.00000  Uiso   1.00
H501501 H     0.43652   0.53161   0.28570   0.00000  Uiso   1.00
H502502 H     0.44886   0.51561   0.32404   0.00000  Uiso   1.00
H503503 H     0.49343   0.55698   0.38745   0.00000  Uiso   1.00
H504504 H     0.48111   0.57296   0.34889   0.00000  Uiso   1.00
H505505 H     0.62816   0.29582   0.31405   0.00000  Uiso   1.00
H506506 H     0.61541   0.26785   0.34532   0.00000  Uiso   1.00
H507507 H     0.65716   0.26884   0.15578   0.00000  Uiso   1.00
H508508 H     0.67013   0.29682   0.13062   0.00000  Uiso   1.00
H509509 H     0.60480   0.24471   0.17574   0.00000  Uiso   1.00
H510510 H     0.59188   0.21655   0.20998   0.00000  Uiso   1.00
H511511 H     0.63491   0.22045   0.39917   0.00000  Uiso   1.00
H512512 H     0.64769   0.24836   0.36995   0.00000  Uiso   1.00
H513513 H     0.52816   0.01232   0.61887   0.00000  Uiso   1.00
H514514 H     0.57840   0.17369   0.35886   0.00000  Uiso   1.00
H515515 H     0.56248   0.14555   0.39889   0.00000  Uiso   1.00
H516516 H     0.60373   0.14174   0.40545   0.00000  Uiso   1.00
H517517 H     0.61980   0.16993   0.36534   0.00000  Uiso   1.00
H518518 H     0.62267   0.19572   0.32934   0.00000  Uiso   1.00
H519519 H     0.53354   0.09510   0.44739   0.00000  Uiso   1.00
H520520 H     0.51708   0.06690   0.48929   0.00000  Uiso   1.00
H521521 H     0.55797   0.06276   0.54922   0.00000  Uiso   1.00
H522522 H     0.57444   0.09099   0.50737   0.00000  Uiso   1.00
H523523 H     0.03529   0.48600   0.07759   0.00000  Uiso   1.00
H524524 H     0.01941   0.46994   0.19688   0.00000  Uiso   1.00
H525525 H     0.02494   0.48941   0.26385   0.00000  Uiso   1.00
H526526 H     0.49323   0.04080   0.61829   0.00000  Uiso   1.00
H527527 H     0.49470   0.02933   0.80619   0.00000  Uiso   1.00
H528528 H     0.47609   0.02677   0.74196   0.00000  Uiso   1.00
H529529 H     0.29680   0.66913   0.23323   0.00000  Uiso   1.00
H530530 H     0.26875   0.65440   0.20689   0.00000  Uiso   1.00
H531531 H     0.27130   0.61456   0.01653   0.00000  Uiso   1.00
H532532 H     0.29933   0.62907   0.04892   0.00000  Uiso   1.00
H533533 H     0.24809   0.64362  -0.00432   0.00000  Uiso   1.00
H534534 H     0.21978   0.62885  -0.02503   0.00000  Uiso   1.00
H535535 H     0.22012   0.58785   0.16243   0.00000  Uiso   1.00
H536536 H     0.24818   0.60251   0.18846   0.00000  Uiso   1.00
H537537 H     0.51209   0.98400   0.62924   0.00000  Uiso   1.00
H538538 H     0.42299   0.82570   0.41742   0.00000  Uiso   1.00
H539539 H     0.43897   0.85383   0.45926   0.00000  Uiso   1.00
H540540 H     0.39768   0.85745   0.49705   0.00000  Uiso   1.00
H541541 H     0.38156   0.82928   0.45523   0.00000  Uiso   1.00
H542542 H     0.37864   0.80356   0.40870   0.00000  Uiso   1.00
H543543 H     0.46753   0.90436   0.57641   0.00000  Uiso   1.00
H544544 H     0.48355   0.93276   0.60342   0.00000  Uiso   1.00
H545545 H     0.44263   0.93677   0.53661   0.00000  Uiso   1.00
H546546 H     0.42663   0.90838   0.50941   0.00000  Uiso   1.00
H547547 H     0.70315   0.33140   0.22245   0.00000  Uiso   1.00
H548548 H     0.73116   0.34654   0.19427   0.00000  Uiso   1.00
H549549 H     0.72768   0.38594   0.00672   0.00000  Uiso   1.00
H550550 H     0.69967   0.37100   0.04154   0.00000  Uiso   1.00
H551551 H     0.75193   0.35782  -0.01466   0.00000  Uiso   1.00
H552552 H     0.78023   0.37312  -0.03267   0.00000  Uiso   1.00
H553553 H     0.77873   0.41346   0.15751   0.00000  Uiso   1.00
H554554 H     0.75069   0.39828   0.18040   0.00000  Uiso   1.00
H555555 H     0.98718   0.51611   0.08184   0.00000  Uiso   1.00
H556556 H     0.82462   0.40355   0.04192   0.00000  Uiso   1.00
H557557 H     0.85301   0.41612   0.03403   0.00000  Uiso   1.00
H558558 H     0.85636   0.46084  -0.00115   0.00000  Uiso   1.00
H559559 H     0.82791   0.44837   0.00667   0.00000  Uiso   1.00
H560560 H     0.80202   0.42524   0.02673   0.00000  Uiso   1.00
H561561 H     0.90371   0.43831  -0.03154   0.00000  Uiso   1.00
H562562 H     0.93219   0.45038  -0.02436   0.00000  Uiso   1.00
H563563 H     0.93633   0.49498   0.07312   0.00000  Uiso   1.00
H564564 H     0.90783   0.48291   0.06583   0.00000  Uiso   1.00
H565565 H     0.51062   0.53554   0.64301   0.00000  Uiso   1.00
H566566 H     0.51453   0.54945   0.45709   0.00000  Uiso   1.00
H567567 H     0.53029   0.54923   0.57927   0.00000  Uiso   1.00
H568568 H     0.97343   0.44990   0.20174   0.00000  Uiso   1.00
H569569 H     0.95884   0.45277   0.08867   0.00000  Uiso   1.00
H570570 H     0.97102   0.46590   0.27120   0.00000  Uiso   1.00
H571571 H     0.33327   0.62970   0.57904   0.00000  Uiso   1.00
H572572 H     0.34804   0.61635   0.57553   0.00000  Uiso   1.00
H573573 H     0.38863   0.65800   0.76889   0.00000  Uiso   1.00
H574574 H     0.37408   0.67156   0.76678   0.00000  Uiso   1.00
H575575 H     0.35930   0.60591   0.77355   0.00000  Uiso   1.00
H576576 H     0.37417   0.59244   0.78148   0.00000  Uiso   1.00
H577577 H     0.41477   0.63397   0.58797   0.00000  Uiso   1.00
H578578 H     0.40000   0.64729   0.57546   0.00000  Uiso   1.00
H579579 H     0.01318   0.48613   0.57865   0.00000  Uiso   1.00
H580580 H     0.17566   0.59813   0.54728   0.00000  Uiso   1.00
H581581 H     0.14730   0.58579   0.53476   0.00000  Uiso   1.00
H582582 H     0.14359   0.54097   0.48755   0.00000  Uiso   1.00
H583583 H     0.17201   0.55321   0.49999   0.00000  Uiso   1.00
H584584 H     0.19797   0.57616   0.52735   0.00000  Uiso   1.00
H585585 H     0.09675   0.56406   0.55464   0.00000  Uiso   1.00
H586586 H     0.06829   0.55212   0.56344   0.00000  Uiso   1.00
H587587 H     0.06355   0.50725   0.46704   0.00000  Uiso   1.00
H588588 H     0.09204   0.51921   0.45853   0.00000  Uiso   1.00
H589589 H     0.66733   0.37030   0.60515   0.00000  Uiso   1.00
H590590 H     0.65232   0.38339   0.61818   0.00000  Uiso   1.00
H591591 H     0.61243   0.34119   0.81315   0.00000  Uiso   1.00
H592592 H     0.62720   0.32789   0.79391   0.00000  Uiso   1.00
H593593 H     0.64128   0.39336   0.82576   0.00000  Uiso   1.00
H594594 H     0.62625   0.40661   0.84392   0.00000  Uiso   1.00
H595595 H     0.58550   0.36502   0.65498   0.00000  Uiso   1.00
H596596 H     0.60042   0.35190   0.63237   0.00000  Uiso   1.00
H597597 H     0.52617   0.50957   0.96258   0.00000  Uiso   1.00
H598598 H     0.59613   0.42096   0.78731   0.00000  Uiso   1.00
H599599 H     0.58388   0.43697   0.81465   0.00000  Uiso   1.00
H600600 H     0.53883   0.39584   0.83976   0.00000  Uiso   1.00
H601601 H     0.55098   0.37967   0.81241   0.00000  Uiso   1.00
H602602 H     0.57392   0.37669   0.78368   0.00000  Uiso   1.00
H603603 H     0.56152   0.46548   0.91931   0.00000  Uiso   1.00
H604604 H     0.54897   0.48139   0.94212   0.00000  Uiso   1.00
H605605 H     0.50432   0.44067   0.85262   0.00000  Uiso   1.00
H606606 H     0.51685   0.42477   0.82988   0.00000  Uiso   1.00
H607607 H     0.37312   0.70505   0.65366   0.00000  Uiso   1.00
H608608 H     0.38612   0.73296   0.69210   0.00000  Uiso   1.00
H609609 H     0.34295   0.72939   0.87241   0.00000  Uiso   1.00
H610610 H     0.32981   0.70154   0.82703   0.00000  Uiso   1.00
H611611 H     0.39541   0.75305   0.90753   0.00000  Uiso   1.00
H612612 H     0.40846   0.78115   0.94506   0.00000  Uiso   1.00
H613613 H     0.36703   0.78082   0.75865   0.00000  Uiso   1.00
H614614 H     0.35412   0.75298   0.71576   0.00000  Uiso   1.00
H615615 H     0.51418   0.52585   0.95333   0.00000  Uiso   1.00
H616616 H     0.40393   0.57786   0.72539   0.00000  Uiso   1.00
H617617 H     0.41599   0.56170   0.75567   0.00000  Uiso   1.00
H618618 H     0.46130   0.60256   0.75429   0.00000  Uiso   1.00
H619619 H     0.44934   0.61888   0.72402   0.00000  Uiso   1.00
H620620 H     0.42649   0.62209   0.70385   0.00000  Uiso   1.00
H621621 H     0.43719   0.53234   0.78715   0.00000  Uiso   1.00
H622622 H     0.44873   0.51565   0.82505   0.00000  Uiso   1.00
H623623 H     0.49399   0.55613   0.88722   0.00000  Uiso   1.00
H624624 H     0.48244   0.57284   0.84940   0.00000  Uiso   1.00
H625625 H     0.62881   0.29609   0.81261   0.00000  Uiso   1.00
H626626 H     0.61581   0.26814   0.84420   0.00000  Uiso   1.00
H627627 H     0.65735   0.26863   0.65588   0.00000  Uiso   1.00
H628628 H     0.67058   0.29664   0.63028   0.00000  Uiso   1.00
H629629 H     0.60501   0.24503   0.67445   0.00000  Uiso   1.00
H630630 H     0.59176   0.21687   0.70880   0.00000  Uiso   1.00
H631631 H     0.63449   0.22016   0.89920   0.00000  Uiso   1.00
H632632 H     0.64760   0.24809   0.87001   0.00000  Uiso   1.00
H633633 H     0.48876   0.01609   1.11896   0.00000  Uiso   1.00
H634634 H     0.57768   0.17388   0.85859   0.00000  Uiso   1.00
H635635 H     0.56146   0.14576   0.89852   0.00000  Uiso   1.00
H636636 H     0.60236   0.14134   0.90594   0.00000  Uiso   1.00
H637637 H     0.61873   0.16949   0.86589   0.00000  Uiso   1.00
H638638 H     0.62196   0.19541   0.82981   0.00000  Uiso   1.00
H639639 H     0.53222   0.09429   0.94658   0.00000  Uiso   1.00
H640640 H     0.51639   0.06600   0.98853   0.00000  Uiso   1.00
H641641 H     0.55807   0.06329   1.05003   0.00000  Uiso   1.00
H642642 H     0.57388   0.09155   1.00784   0.00000  Uiso   1.00
H643643 H     0.29746   0.66900   0.73283   0.00000  Uiso   1.00
H644644 H     0.26942   0.65421   0.70732   0.00000  Uiso   1.00
H645645 H     0.27207   0.61445   0.51576   0.00000  Uiso   1.00
H646646 H     0.30010   0.62902   0.54769   0.00000  Uiso   1.00
H647647 H     0.24861   0.64330   0.49820   0.00000  Uiso   1.00
H648648 H     0.22030   0.62834   0.47793   0.00000  Uiso   1.00
H649649 H     0.22103   0.58754   0.66523   0.00000  Uiso   1.00
H650650 H     0.24908   0.60237   0.69031   0.00000  Uiso   1.00
H651651 H     0.47237   0.98781   1.12944   0.00000  Uiso   1.00
H652652 H     0.42256   0.82576   0.91778   0.00000  Uiso   1.00
H653653 H     0.43832   0.85390   0.95952   0.00000  Uiso   1.00
H654654 H     0.39679   0.85708   0.99663   0.00000  Uiso   1.00
H655655 H     0.38087   0.82889   0.95494   0.00000  Uiso   1.00
H656656 H     0.37822   0.80326   0.90845   0.00000  Uiso   1.00
H657657 H     0.46662   0.90386   1.07705   0.00000  Uiso   1.00
H658658 H     0.48295   0.93222   1.10438   0.00000  Uiso   1.00
H659659 H     0.44248   0.93695   1.03495   0.00000  Uiso   1.00
H660660 H     0.42613   0.90858   1.00779   0.00000  Uiso   1.00
H661661 H     0.70388   0.33138   0.72215   0.00000  Uiso   1.00
H662662 H     0.73189   0.34647   0.69342   0.00000  Uiso   1.00
H663663 H     0.72850   0.38595   0.50736   0.00000  Uiso   1.00
H664664 H     0.70049   0.37105   0.54229   0.00000  Uiso   1.00
H665665 H     0.75256   0.35767   0.48289   0.00000  Uiso   1.00
H666666 H     0.78086   0.37283   0.46461   0.00000  Uiso   1.00
H667667 H     0.77966   0.41331   0.65527   0.00000  Uiso   1.00
H668668 H     0.75161   0.39826   0.67895   0.00000  Uiso   1.00
H669669 H     0.98480   0.47360   0.57964   0.00000  Uiso   1.00
H670670 H     0.82535   0.40300   0.54171   0.00000  Uiso   1.00
H671671 H     0.85373   0.41538   0.53384   0.00000  Uiso   1.00
H672672 H     0.85742   0.46025   0.49910   0.00000  Uiso   1.00
H673673 H     0.82900   0.44797   0.50692   0.00000  Uiso   1.00
H674674 H     0.80303   0.42498   0.52720   0.00000  Uiso   1.00
H675675 H     0.90519   0.43820   0.46750   0.00000  Uiso   1.00
H676676 H     0.93374   0.45083   0.47595   0.00000  Uiso   1.00
H677677 H     0.93676   0.49493   0.57483   0.00000  Uiso   1.00
H678678 H     0.90823   0.48231   0.56620   0.00000  Uiso   1.00
H679679 H     0.44741   0.47449   1.07473   0.00000  Uiso   1.00
H680680 H     0.45068   0.49166   0.95086   0.00000  Uiso   1.00
H681681 H     0.46359   0.49299   1.13878   0.00000  Uiso   1.00
H682682 H     0.48659   0.46172   1.15340   0.00000  Uiso   1.00
H683683 H     0.48316   0.44766   0.97120   0.00000  Uiso   1.00
H684684 H     0.46707   0.44777   1.08638   0.00000  Uiso   1.00
H685685 H     1.04109   0.54953   0.58664   0.00000  Uiso   1.00
H686686 H     1.02919   0.53629   0.77001   0.00000  Uiso   1.00
H687687 H     1.02649   0.55217   0.70339   0.00000  Uiso   1.00
H688688 H     0.97401   0.51454   0.76057   0.00000  Uiso   1.00
H689689 H     0.97707   0.53190   0.64431   0.00000  Uiso   1.00
H690690 H     0.99308   0.53193   0.76351   0.00000  Uiso   1.00
H691691 H     0.55079   1.03474   1.11664   0.00000  Uiso   1.00
H692692 H     0.55077   1.01898   1.24140   0.00000  Uiso   1.00
H693693 H     0.53704   1.02492   1.30493   0.00000  Uiso   1.00
H694694 H     0.52336   0.96894   1.19455   0.00000  Uiso   1.00
H695695 H     0.50740   0.96906   1.31240   0.00000  Uiso   1.00
H696696 H     0.52652   0.98640   1.30992   0.00000  Uiso   1.00
loop_
_geom_bond_atom_site_label_1
_geom_bond_atom_site_label_2
_geom_bond_distance
_geom_bond_site_symmetry_2
_ccdc_geom_bond_type
C11    C7676   1.401   .     S
C11    C150150  1.402   .     S
C22    C7575   1.402   .     D
C22    C149149  1.402   .     S
C22    C151151  1.489   .     S
C33    C44     1.409   .     D
C33    C88     1.409   .     S
C33    C7676   1.488   .     S
C44    C55     1.397   .     S
C44    H445445  1.082   .     S
C55    C66     1.406   .     D
C55    H446446  1.082   .     S
C66    C77     1.405   .     S
C66    C99     1.486   .     S
C77    C88     1.396   .     D
C77    H447447  1.082   .     S
C88    H448448  1.082   .     S
C99    C1010   1.407   .     D
C99    C1414   1.407   .     S
C1010  C1111   1.396   .     S
C1010  H449449  1.082   .     S
C1111  C1212   1.399   .     D
C1111  H450450  1.083   .     S
C1212  C1313   1.408   .     S
C1212  N9999   1.436   .     S
C1313  C1414   1.397   .     D
C1313  H451451  1.080   .     S
C1414  H452452  1.083   .     S
C1515  C1717   1.398   .     S
C1515  H453453  1.084   .     S
C1515  C197197  1.393   1_455 D
C1616  C1717   1.413   .     D
C1616  O145145  1.406   .     S
C1616  C199199  1.406   1_455 S
C1717  C3535   1.440   .     S
C1818  C1919   1.397   .     D
C1818  C2323   1.407   .     S
C1818  H454454  1.082   .     S
C1919  C2020   1.400   .     S
C1919  H455455  1.083   .     S
C2020  C2121   1.399   .     D
C2020  C2626   1.438   .     S
C2121  C2222   1.398   .     S
C2121  H456456  1.083   .     S
C2222  C2323   1.404   .     D
C2222  H457457  1.083   .     S
C2323  C2424   1.476   .     S
C2424  N2525   1.300   .     D
C2424  H458458  1.082   .     S
N2525  C160160  1.437   .     S
C2626  C2727   1.206   .     T
C2727  C2828   1.437   .     S
C2828  C2929   1.401   .     S
C2828  C3333   1.401   .     D
C2929  C3030   1.398   .     D
C2929  H459459  1.083   .     S
C3030  C3131   1.401   .     S
C3030  H460460  1.083   .     S
C3131  C3232   1.400   .     D
C3131  C3434   1.437   .     S
C3232  C3333   1.398   .     S
C3232  H461461  1.083   .     S
C3333  H462462  1.083   .     S
C3434  C3535   1.204   .     T
C3636  C111111  1.402   .     D
C3636  C185185  1.400   .     D
C3737  C3838   1.490   .     S
C3737  C110110  1.402   .     D
C3737  C184184  1.402   .     S
C3838  C3939   1.408   .     D
C3838  C4343   1.407   .     S
C3939  C4040   1.397   .     S
C3939  H463463  1.082   .     S
C4040  C4141   1.406   .     D
C4040  H464464  1.082   .     S
C4141  C4242   1.406   .     S
C4141  C4444   1.489   .     S
C4242  C4343   1.397   .     D
C4242  H465465  1.083   .     S
C4343  H466466  1.082   .     S
C4444  C4545   1.406   .     D
C4444  C4848   1.406   .     S
C4545  C4646   1.397   .     S
C4545  H467467  1.082   .     S
C4646  C7070   1.399   .     D
C4646  H468468  1.083   .     S
C4747  C4848   1.398   .     D
C4747  C7070   1.407   .     S
C4747  H469469  1.081   .     S
C4848  H470470  1.082   .     S
C4949  C5050   1.398   .     D
C4949  C8989   1.394   .     S
C4949  H471471  1.083   .     S
C5050  C5151   1.406   .     S
C5050  C6969   1.438   .     S
C5151  O7373   1.400   .     S
C5151  C9090   1.405   .     D
C5252  C5353   1.398   .     S
C5252  C5757   1.408   .     D
C5252  H472472  1.083   .     S
C5353  C5454   1.399   .     D
C5353  H473473  1.083   .     S
C5454  C5555   1.399   .     S
C5454  C6060   1.438   .     S
C5555  C5656   1.398   .     D
C5555  H474474  1.083   .     S
C5656  C5757   1.403   .     S
C5656  H475475  1.083   .     S
C5757  C5858   1.475   .     S
C5858  N5959   1.300   .     D
C5858  H476476  1.082   .     S
N5959  C7070   1.436   .     S
C6060  C6161   1.205   .     T
C6161  C6262   1.439   .     S
C6262  C6363   1.400   .     D
C6262  C6767   1.401   .     S
C6363  C6464   1.398   .     S
C6363  H477477  1.083   .     S
C6464  C6565   1.401   .     D
C6464  H478478  1.084   .     S
C6565  C6666   1.401   .     S
C6565  C6868   1.437   .     S
C6666  C6767   1.399   .     D
C6666  H479479  1.084   .     S
C6767  H480480  1.083   .     S
C6868  C6969   1.205   .     T
O7171  C7272   1.425   .     S
O7171  C164164  1.400   .     S
C7272  H481481  1.111   .     S
C7272  H482482  1.109   .     S
C7272  H483483  1.112   .     S
O7373  C7474   1.425   .     S
C7474  H484484  1.109   .     S
C7474  H485485  1.111   .     S
C7474  H486486  1.112   .     S
C7575  C150150  1.401   .     D
C7676  C149149  1.402   .     D
C7777  C7878   1.406   .     D
C7777  C8282   1.406   .     S
C7777  C150150  1.487   .     S
C7878  C7979   1.396   .     S
C7878  H487487  1.082   .     S
C7979  C8080   1.406   .     D
C7979  H488488  1.082   .     S
C8080  C8181   1.407   .     S
C8080  C8383   1.490   .     S
C8181  C8282   1.397   .     D
C8181  H489489  1.083   .     S
C8282  H490490  1.082   .     S
C8383  C8484   1.407   .     D
C8383  C8888   1.408   .     S
C8484  C8585   1.396   .     S
C8484  H491491  1.082   .     S
C8585  C8686   1.397   .     D
C8585  H492492  1.083   .     S
C8686  C8787   1.407   .     S
C8686  N173173  1.437   .     S
C8787  C8888   1.398   .     D
C8787  H493493  1.080   .     S
C8888  H494494  1.082   .     S
C8989  C9191   1.399   .     D
C8989  H495495  1.083   .     S
C9090  C9191   1.413   .     S
C9090  O219219  1.405   .     S
C9191  C109109  1.439   .     S
C9292  C9393   1.398   .     S
C9292  C9797   1.407   .     D
C9292  H496496  1.083   .     S
C9393  C9494   1.399   .     D
C9393  H497497  1.083   .     S
C9494  C9595   1.398   .     S
C9494  C100100  1.438   .     S
C9595  C9696   1.398   .     D
C9595  H498498  1.084   .     S
C9696  C9797   1.404   .     S
C9696  H499499  1.082   .     S
C9797  C9898   1.475   .     S
C9898  N9999   1.299   .     D
C9898  H500500  1.081   .     S
C100100 C101101  1.205   .     T
C101101 C102102  1.437   .     S
C102102 C103103  1.400   .     D
C102102 C107107  1.401   .     S
C103103 C104104  1.398   .     S
C103103 H501501  1.083   .     S
C104104 C105105  1.400   .     D
C104104 H502502  1.084   .     S
C105105 C106106  1.400   .     S
C105105 C108108  1.438   .     S
C106106 C107107  1.398   .     D
C106106 H503503  1.083   .     S
C107107 H504504  1.084   .     S
C108108 C109109  1.204   .     T
C110110 C185185  1.401   .     S
C111111 C112112  1.489   .     S
C111111 C184184  1.401   .     S
C112112 C113113  1.408   .     D
C112112 C117117  1.408   .     S
C113113 C114114  1.397   .     S
C113113 H505505  1.082   .     S
C114114 C115115  1.405   .     D
C114114 H506506  1.082   .     S
C115115 C116116  1.406   .     S
C115115 C118118  1.489   .     S
C116116 C117117  1.395   .     D
C116116 H507507  1.083   .     S
C117117 H508508  1.083   .     S
C118118 C119119  1.406   .     D
C118118 C122122  1.407   .     S
C119119 C120120  1.397   .     S
C119119 H509509  1.082   .     S
C120120 C144144  1.399   .     D
C120120 H510510  1.082   .     S
C121121 C122122  1.397   .     D
C121121 C144144  1.408   .     S
C121121 H511511  1.080   .     S
C122122 H512512  1.082   .     S
C123123 C124124  1.400   .     D
C123123 H513513  1.083   .     S
C123123 C163163  1.393   1_545 S
C124124 C125125  1.413   .     S
C124124 C143143  1.440   .     S
C125125 O147147  1.406   .     S
C125125 C164164  1.404   1_545 D
C126126 C127127  1.397   .     S
C126126 C131131  1.406   .     D
C126126 H514514  1.083   .     S
C127127 C128128  1.399   .     D
C127127 H515515  1.083   .     S
C128128 C129129  1.399   .     S
C128128 C134134  1.437   .     S
C129129 C130130  1.398   .     D
C129129 H516516  1.083   .     S
C130130 C131131  1.404   .     S
C130130 H517517  1.082   .     S
C131131 C132132  1.476   .     S
C132132 N133133  1.299   .     D
C132132 H518518  1.082   .     S
N133133 C144144  1.437   .     S
C134134 C135135  1.204   .     T
C135135 C136136  1.438   .     S
C136136 C137137  1.401   .     D
C136136 C141141  1.400   .     S
C137137 C138138  1.397   .     S
C137137 H519519  1.082   .     S
C138138 C139139  1.400   .     D
C138138 H520520  1.083   .     S
C139139 C140140  1.401   .     S
C139139 C142142  1.437   .     S
C140140 C141141  1.399   .     D
C140140 H521521  1.083   .     S
C141141 H522522  1.083   .     S
C142142 C143143  1.204   .     T
O145145 C146146  1.430   .     S
C146146 H523523  1.109   .     S
C146146 H524524  1.109   .     S
C146146 H525525  1.110   .     S
O147147 C148148  1.430   .     S
C148148 H526526  1.109   .     S
C148148 H527527  1.111   .     S
C148148 H528528  1.109   .     S
C151151 C152152  1.408   .     S
C151151 C156156  1.408   .     D
C152152 C153153  1.397   .     D
C152152 H529529  1.083   .     S
C153153 C154154  1.406   .     S
C153153 H530530  1.082   .     S
C154154 C155155  1.405   .     D
C154154 C157157  1.488   .     S
C155155 C156156  1.397   .     S
C155155 H531531  1.082   .     S
C156156 H532532  1.082   .     S
C157157 C158158  1.407   .     S
C157157 C162162  1.407   .     D
C158158 C159159  1.397   .     D
C158158 H533533  1.083   .     S
C159159 C160160  1.398   .     S
C159159 H534534  1.083   .     S
C160160 C161161  1.406   .     D
C161161 C162162  1.398   .     S
C161161 H535535  1.081   .     S
C162162 H536536  1.083   .     S
C163163 C165165  1.397   .     D
C163163 H537537  1.084   .     S
C163163 C123123  1.393   1_565 S
C164164 C165165  1.407   .     S
C164164 C125125  1.404   1_565 D
C165165 C183183  1.439   .     S
C166166 C167167  1.398   .     S
C166166 C171171  1.407   .     D
C166166 H538538  1.083   .     S
C167167 C168168  1.399   .     D
C167167 H539539  1.084   .     S
C168168 C169169  1.399   .     S
C168168 C174174  1.438   .     S
C169169 C170170  1.398   .     D
C169169 H540540  1.085   .     S
C170170 C171171  1.403   .     S
C170170 H541541  1.083   .     S
C171171 C172172  1.476   .     S
C172172 N173173  1.299   .     D
C172172 H542542  1.082   .     S
C174174 C175175  1.206   .     T
C175175 C176176  1.437   .     S
C176176 C177177  1.401   .     D
C176176 C181181  1.400   .     S
C177177 C178178  1.398   .     S
C177177 H543543  1.083   .     S
C178178 C179179  1.400   .     D
C178178 H544544  1.083   .     S
C179179 C180180  1.401   .     S
C179179 C182182  1.437   .     S
C180180 C181181  1.398   .     D
C180180 H545545  1.084   .     S
C181181 H546546  1.083   .     S
C182182 C183183  1.204   .     T
C185185 C186186  1.487   .     S
C186186 C187187  1.408   .     S
C186186 C191191  1.407   .     D
C187187 C188188  1.397   .     D
C187187 H547547  1.083   .     S
C188188 C189189  1.406   .     S
C188188 H548548  1.081   .     S
C189189 C190190  1.405   .     D
C189189 C192192  1.489   .     S
C190190 C191191  1.397   .     S
C190190 H549549  1.082   .     S
C191191 H550550  1.083   .     S
C192192 C193193  1.406   .     S
C192192 C196196  1.407   .     D
C193193 C194194  1.397   .     D
C193193 H551551  1.081   .     S
C194194 C218218  1.399   .     S
C194194 H552552  1.083   .     S
C195195 C196196  1.397   .     S
C195195 C218218  1.407   .     D
C195195 H553553  1.080   .     S
C196196 H554554  1.083   .     S
C197197 C198198  1.397   .     S
C197197 H555555  1.083   .     S
C197197 C1515   1.393   1_655 D
C198198 C199199  1.412   .     D
C198198 C217217  1.440   .     S
C199199 O221221  1.405   .     S
C199199 C1616   1.406   1_655 S
C200200 C201201  1.397   .     D
C200200 C205205  1.408   .     S
C200200 H556556  1.083   .     S
C201201 C202202  1.399   .     S
C201201 H557557  1.084   .     S
C202202 C203203  1.399   .     D
C202202 C208208  1.437   .     S
C203203 C204204  1.398   .     S
C203203 H558558  1.084   .     S
C204204 C205205  1.404   .     D
C204204 H559559  1.083   .     S
C205205 C206206  1.475   .     S
C206206 N207207  1.300   .     D
C206206 H560560  1.082   .     S
N207207 C218218  1.437   .     S
C208208 C209209  1.205   .     T
C209209 C210210  1.438   .     S
C210210 C211211  1.401   .     S
C210210 C215215  1.400   .     D
C211211 C212212  1.397   .     D
C211211 H561561  1.083   .     S
C212212 C213213  1.400   .     S
C212212 H562562  1.083   .     S
C213213 C214214  1.401   .     D
C213213 C216216  1.437   .     S
C214214 C215215  1.398   .     S
C214214 H563563  1.083   .     S
C215215 H564564  1.084   .     S
C216216 C217217  1.204   .     T
O219219 C220220  1.430   .     S
C220220 H565565  1.111   .     S
C220220 H566566  1.109   .     S
C220220 H567567  1.109   .     S
O221221 C222222  1.430   .     S
C222222 H568568  1.109   .     S
C222222 H569569  1.110   .     S
C222222 H570570  1.110   .     S
C223223 C294294  1.402   .     D
C223223 C364364  1.402   .     D
C224224 C293293  1.401   .     D
C224224 C363363  1.401   .     S
C224224 C365365  1.489   .     S
C225225 C226226  1.409   .     D
C225225 C230230  1.408   .     S
C225225 C294294  1.489   .     S
C226226 C227227  1.397   .     S
C226226 H571571  1.082   .     S
C227227 C228228  1.406   .     D
C227227 H572572  1.082   .     S
C228228 C229229  1.405   .     S
C228228 C231231  1.487   .     S
C229229 C230230  1.397   .     D
C229229 H573573  1.082   .     S
C230230 H574574  1.082   .     S
C231231 C232232  1.407   .     D
C231231 C236236  1.407   .     S
C232232 C233233  1.397   .     S
C232232 H575575  1.082   .     S
C233233 C234234  1.399   .     D
C233233 H576576  1.083   .     S
C234234 C235235  1.407   .     S
C234234 N317317  1.438   .     S
C235235 C236236  1.398   .     D
C235235 H577577  1.080   .     S
C236236 H578578  1.082   .     S
C237237 C239239  1.414   .     D
C237237 C411411  1.405   1_455 S
C237237 O437437  1.404   1_455 S
C238238 C239239  1.399   .     S
C238238 H579579  1.083   .     S
C238238 C413413  1.394   1_455 D
C239239 C257257  1.440   .     S
C240240 C241241  1.397   .     S
C240240 C245245  1.406   .     D
C240240 H580580  1.083   .     S
C241241 C242242  1.399   .     D
C241241 H581581  1.083   .     S
C242242 C243243  1.399   .     S
C242242 C248248  1.437   .     S
C243243 C244244  1.397   .     D
C243243 H582582  1.083   .     S
C244244 C245245  1.404   .     S
C244244 H583583  1.083   .     S
C245245 C246246  1.476   .     S
C246246 N247247  1.299   .     D
C246246 H584584  1.082   .     S
N247247 C374374  1.436   .     S
C248248 C249249  1.205   .     T
C249249 C250250  1.437   .     S
C250250 C251251  1.400   .     D
C250250 C255255  1.400   .     S
C251251 C252252  1.398   .     S
C251251 H585585  1.083   .     S
C252252 C253253  1.401   .     D
C252252 H586586  1.083   .     S
C253253 C254254  1.400   .     S
C253253 C256256  1.437   .     S
C254254 C255255  1.399   .     D
C254254 H587587  1.084   .     S
C255255 H588588  1.083   .     S
C256256 C257257  1.204   .     T
C258258 C329329  1.402   .     D
C258258 C399399  1.402   .     D
C259259 C260260  1.489   .     S
C259259 C328328  1.402   .     S
C259259 C398398  1.401   .     D
C260260 C261261  1.407   .     D
C260260 C265265  1.408   .     S
C261261 C262262  1.396   .     S
C261261 H589589  1.083   .     S
C262262 C263263  1.406   .     D
C262262 H590590  1.083   .     S
C263263 C264264  1.405   .     S
C263263 C266266  1.488   .     S
C264264 C265265  1.397   .     D
C264264 H591591  1.082   .     S
C265265 H592592  1.082   .     S
C266266 C267267  1.406   .     D
C266266 C270270  1.407   .     S
C267267 C268268  1.397   .     S
C267267 H593593  1.082   .     S
C268268 C292292  1.398   .     D
C268268 H594594  1.082   .     S
C269269 C270270  1.398   .     D
C269269 C292292  1.407   .     S
C269269 H595595  1.080   .     S
C270270 H596596  1.083   .     S
C271271 C272272  1.414   .     D
C271271 C307307  1.405   .     S
C271271 O435435  1.406   .     S
C272272 C273273  1.398   .     S
C272272 C291291  1.439   .     S
C273273 C308308  1.393   .     D
C273273 H597597  1.083   .     S
C274274 C275275  1.398   .     S
C274274 C279279  1.407   .     D
C274274 H598598  1.083   .     S
C275275 C276276  1.399   .     D
C275275 H599599  1.083   .     S
C276276 C277277  1.399   .     S
C276276 C282282  1.437   .     S
C277277 C278278  1.398   .     D
C277277 H600600  1.083   .     S
C278278 C279279  1.404   .     S
C278278 H601601  1.083   .     S
C279279 C280280  1.475   .     S
C280280 N281281  1.299   .     D
C280280 H602602  1.081   .     S
N281281 C292292  1.437   .     S
C282282 C283283  1.205   .     T
C283283 C284284  1.437   .     S
C284284 C285285  1.401   .     D
C284284 C289289  1.400   .     S
C285285 C286286  1.398   .     S
C285285 H603603  1.083   .     S
C286286 C287287  1.401   .     D
C286286 H604604  1.083   .     S
C287287 C288288  1.400   .     S
C287287 C290290  1.437   .     S
C288288 C289289  1.397   .     D
C288288 H605605  1.083   .     S
C289289 H606606  1.083   .     S
C290290 C291291  1.204   .     T
C293293 C364364  1.400   .     S
C294294 C363363  1.402   .     S
C295295 C296296  1.406   .     D
C295295 C300300  1.407   .     S
C295295 C364364  1.487   .     S
C296296 C297297  1.396   .     S
C296296 H607607  1.083   .     S
C297297 C298298  1.406   .     D
C297297 H608608  1.082   .     S
C298298 C299299  1.406   .     S
C298298 C301301  1.490   .     S
C299299 C300300  1.397   .     D
C299299 H609609  1.083   .     S
C300300 H610610  1.082   .     S
C301301 C302302  1.407   .     D
C301301 C306306  1.408   .     S
C302302 C303303  1.397   .     S
C302302 H611611  1.082   .     S
C303303 C304304  1.398   .     D
C303303 H612612  1.083   .     S
C304304 C305305  1.407   .     S
C304304 N387387  1.437   .     S
C305305 C306306  1.398   .     D
C305305 H613613  1.080   .     S
C306306 H614614  1.082   .     S
C307307 C309309  1.413   .     D
C307307 O433433  1.406   .     S
C308308 C309309  1.398   .     S
C308308 H615615  1.083   .     S
C309309 C327327  1.440   .     S
C310310 C311311  1.397   .     S
C310310 C315315  1.407   .     D
C310310 H616616  1.083   .     S
C311311 C312312  1.399   .     D
C311311 H617617  1.083   .     S
C312312 C313313  1.399   .     S
C312312 C318318  1.438   .     S
C313313 C314314  1.398   .     D
C313313 H618618  1.083   .     S
C314314 C315315  1.404   .     S
C314314 H619619  1.083   .     S
C315315 C316316  1.477   .     S
C316316 N317317  1.299   .     D
C316316 H620620  1.081   .     S
C318318 C319319  1.205   .     T
C319319 C320320  1.438   .     S
C320320 C321321  1.400   .     D
C320320 C325325  1.401   .     S
C321321 C322322  1.398   .     S
C321321 H621621  1.084   .     S
C322322 C323323  1.401   .     D
C322322 H622622  1.083   .     S
C323323 C324324  1.400   .     S
C323323 C326326  1.436   .     S
C324324 C325325  1.399   .     D
C324324 H623623  1.084   .     S
C325325 H624624  1.083   .     S
C326326 C327327  1.205   .     T
C328328 C399399  1.402   .     S
C329329 C330330  1.489   .     S
C329329 C398398  1.401   .     S
C330330 C331331  1.408   .     D
C330330 C335335  1.408   .     S
C331331 C332332  1.396   .     S
C331331 H625625  1.082   .     S
C332332 C333333  1.406   .     D
C332332 H626626  1.082   .     S
C333333 C334334  1.405   .     S
C333333 C336336  1.488   .     S
C334334 C335335  1.397   .     D
C334334 H627627  1.083   .     S
C335335 H628628  1.083   .     S
C336336 C337337  1.407   .     D
C336336 C340340  1.407   .     S
C337337 C338338  1.397   .     S
C337337 H629629  1.081   .     S
C338338 C362362  1.398   .     D
C338338 H630630  1.083   .     S
C339339 C340340  1.398   .     D
C339339 C362362  1.407   .     S
C339339 H631631  1.079   .     S
C340340 H632632  1.082   .     S
C341341 C342342  1.413   .     D
C341341 C377377  1.405   1_545 S
C341341 O441441  1.406   1_545 S
C342342 C343343  1.399   .     S
C342342 C361361  1.439   .     S
C343343 H633633  1.084   .     S
C343343 C378378  1.394   1_545 D
C344344 C345345  1.399   .     S
C344344 C349349  1.407   .     D
C344344 H634634  1.083   .     S
C345345 C346346  1.399   .     D
C345345 H635635  1.083   .     S
C346346 C347347  1.399   .     S
C346346 C352352  1.438   .     S
C347347 C348348  1.398   .     D
C347347 H636636  1.083   .     S
C348348 C349349  1.403   .     S
C348348 H637637  1.084   .     S
C349349 C350350  1.475   .     S
C350350 N351351  1.299   .     D
C350350 H638638  1.081   .     S
N351351 C362362  1.437   .     S
C352352 C353353  1.205   .     T
C353353 C354354  1.438   .     S
C354354 C355355  1.400   .     D
C354354 C359359  1.401   .     S
C355355 C356356  1.399   .     S
C355355 H639639  1.083   .     S
C356356 C357357  1.401   .     D
C356356 H640640  1.083   .     S
C357357 C358358  1.399   .     S
C357357 C360360  1.437   .     S
C358358 C359359  1.397   .     D
C358358 H641641  1.083   .     S
C359359 H642642  1.083   .     S
C360360 C361361  1.205   .     T
C365365 C366366  1.407   .     D
C365365 C370370  1.408   .     S
C366366 C367367  1.397   .     S
C366366 H643643  1.082   .     S
C367367 C368368  1.406   .     D
C367367 H644644  1.081   .     S
C368368 C369369  1.405   .     S
C368368 C371371  1.488   .     S
C369369 C370370  1.397   .     D
C369369 H645645  1.082   .     S
C370370 H646646  1.082   .     S
C371371 C372372  1.407   .     D
C371371 C376376  1.407   .     S
C372372 C373373  1.397   .     S
C372372 H647647  1.082   .     S
C373373 C374374  1.398   .     D
C373373 H648648  1.083   .     S
C374374 C375375  1.408   .     S
C375375 C376376  1.397   .     D
C375375 H649649  1.080   .     S
C376376 H650650  1.082   .     S
C377377 C379379  1.406   .     D
C377377 O443443  1.399   .     S
C377377 C341341  1.405   1_565 S
C378378 C379379  1.396   .     S
C378378 H651651  1.084   .     S
C378378 C343343  1.394   1_565 D
C379379 C397397  1.439   .     S
C380380 C381381  1.397   .     S
C380380 C385385  1.407   .     D
C380380 H652652  1.083   .     S
C381381 C382382  1.399   .     D
C381381 H653653  1.084   .     S
C382382 C383383  1.399   .     S
C382382 C388388  1.438   .     S
C383383 C384384  1.397   .     D
C383383 H654654  1.083   .     S
C384384 C385385  1.404   .     S
C384384 H655655  1.083   .     S
C385385 C386386  1.475   .     S
C386386 N387387  1.300   .     D
C386386 H656656  1.081   .     S
C388388 C389389  1.205   .     T
C389389 C390390  1.438   .     S
C390390 C391391  1.400   .     D
C390390 C395395  1.401   .     S
C391391 C392392  1.397   .     S
C391391 H657657  1.084   .     S
C392392 C393393  1.400   .     D
C392392 H658658  1.084   .     S
C393393 C394394  1.401   .     S
C393393 C396396  1.437   .     S
C394394 C395395  1.398   .     D
C394394 H659659  1.083   .     S
C395395 H660660  1.083   .     S
C396396 C397397  1.205   .     T
C399399 C400400  1.488   .     S
C400400 C401401  1.407   .     D
C400400 C405405  1.408   .     S
C401401 C402402  1.397   .     S
C401401 H661661  1.082   .     S
C402402 C403403  1.406   .     D
C402402 H662662  1.081   .     S
C403403 C404404  1.406   .     S
C403403 C406406  1.488   .     S
C404404 C405405  1.397   .     D
C404404 H663663  1.083   .     S
C405405 H664664  1.083   .     S
C406406 C407407  1.407   .     D
C406406 C410410  1.407   .     S
C407407 C408408  1.396   .     S
C407407 H665665  1.082   .     S
C408408 C432432  1.398   .     D
C408408 H666666  1.083   .     S
C409409 C410410  1.397   .     D
C409409 C432432  1.407   .     S
C409409 H667667  1.080   .     S
C410410 H668668  1.083   .     S
C411411 C412412  1.406   .     D
C411411 O439439  1.400   .     S
C411411 C237237  1.405   1_655 S
C412412 C413413  1.398   .     S
C412412 C431431  1.438   .     S
C413413 H669669  1.083   .     S
C413413 C238238  1.394   1_655 D
C414414 C415415  1.397   .     S
C414414 C419419  1.407   .     D
C414414 H670670  1.082   .     S
C415415 C416416  1.400   .     D
C415415 H671671  1.084   .     S
C416416 C417417  1.399   .     S
C416416 C422422  1.438   .     S
C417417 C418418  1.398   .     D
C417417 H672672  1.083   .     S
C418418 C419419  1.404   .     S
C418418 H673673  1.082   .     S
C419419 C420420  1.476   .     S
C420420 N421421  1.299   .     D
C420420 H674674  1.081   .     S
N421421 C432432  1.437   .     S
C422422 C423423  1.205   .     T
C423423 C424424  1.438   .     S
C424424 C425425  1.401   .     D
C424424 C429429  1.401   .     S
C425425 C426426  1.398   .     S
C425425 H675675  1.083   .     S
C426426 C427427  1.400   .     D
C426426 H676676  1.083   .     S
C427427 C428428  1.400   .     S
C427427 C430430  1.437   .     S
C428428 C429429  1.398   .     D
C428428 H677677  1.084   .     S
C429429 H678678  1.083   .     S
C430430 C431431  1.205   .     T
O433433 C434434  1.430   .     S
C434434 H679679  1.109   .     S
C434434 H680680  1.110   .     S
C434434 H681681  1.111   .     S
O435435 C436436  1.430   .     S
C436436 H682682  1.111   .     S
C436436 H683683  1.110   .     S
C436436 H684684  1.110   .     S
O437437 C438438  1.430   .     S
O437437 C237237  1.404   1_655 S
C438438 H685685  1.109   .     S
C438438 H686686  1.110   .     S
C438438 H687687  1.109   .     S
O439439 C440440  1.425   .     S
C440440 H688688  1.111   .     S
C440440 H689689  1.109   .     S
C440440 H690690  1.111   .     S
O441441 C442442  1.430   .     S
O441441 C341341  1.406   1_565 S
C442442 H691691  1.109   .     S
C442442 H692692  1.109   .     S
C442442 H693693  1.111   .     S
O443443 C444444  1.425   .     S
C444444 H694694  1.109   .     S
C444444 H695695  1.111   .     S
C444444 H696696  1.112   .     S
