data_951
_audit_creation_date              2023-09-08
_audit_creation_method            'Materials Studio'
_symmetry_space_group_name_H-M    'P1'
_symmetry_Int_Tables_number       1
_symmetry_cell_setting            triclinic
loop_
_symmetry_equiv_pos_as_xyz
  x,y,z
_cell_length_a                    39.3600
_cell_length_b                    35.8100
_cell_length_c                    37.5400
_cell_angle_alpha                 90.0000
_cell_angle_beta                  90.0000
_cell_angle_gamma                 90.0000
loop_
_atom_site_label
_atom_site_type_symbol
_atom_site_fract_x
_atom_site_fract_y
_atom_site_fract_z
_atom_site_U_iso_or_equiv
_atom_site_adp_type
_atom_site_occupancy
C1     C     0.17190   0.43690   0.72950   0.00000  Uiso   1.00
C2     C     0.29700   0.56530   0.55380   0.00000  Uiso   1.00
C3     C     0.14770   0.40410   0.79980   0.00000  Uiso   1.00
C4     C     0.13500   0.38750   0.83720   0.00000  Uiso   1.00
C5     C     0.10880   0.35940   0.83740   0.00000  Uiso   1.00
C6     C     0.18170   0.44560   0.98500   0.00000  Uiso   1.00
C7     C     0.12420   0.40630   0.76700   0.00000  Uiso   1.00
C8     C     0.13640   0.42210   0.73210   0.00000  Uiso   1.00
C9     C     0.16490   0.43380   0.95070   0.00000  Uiso   1.00
C10    C     0.25930   0.51230   0.66100   0.00000  Uiso   1.00
C11    C     0.23260   0.48540   0.65630   0.00000  Uiso   1.00
C12    C     0.27580   0.52860   0.62850   0.00000  Uiso   1.00
N13    N     0.21650   0.46950   0.69060   0.00000  Uiso   1.00
C14    C     0.18620   0.42200   0.01680   0.00000  Uiso   1.00
C15    C     0.18480   0.45310   0.69240   0.00000  Uiso   1.00
C16    C     0.15340   0.39770   0.94660   0.00000  Uiso   1.00
C17    C     0.13740   0.38470   0.90890   0.00000  Uiso   1.00
C18    C     0.11060   0.35720   0.90820   0.00000  Uiso   1.00
C19    C     0.19500   0.43560   0.76240   0.00000  Uiso   1.00
C20    C     0.15850   0.37390   0.97830   0.00000  Uiso   1.00
C21    C     0.17440   0.38610   0.01320   0.00000  Uiso   1.00
C22    C     0.18350   0.41870   0.79660   0.00000  Uiso   1.00
C23    C     0.24040   0.48970   0.58580   0.00000  Uiso   1.00
C24    C     0.26590   0.51770   0.59050   0.00000  Uiso   1.00
C25    C     0.22350   0.47370   0.61830   0.00000  Uiso   1.00
N26    N     0.28230   0.53340   0.55620   0.00000  Uiso   1.00
C27    C     0.08040   0.27940   0.87280   0.00000  Uiso   1.00
C28    C     0.03080   0.32580   0.87200   0.00000  Uiso   1.00
C29    C     0.01890   0.36140   0.87170   0.00000  Uiso   1.00
C30    C     0.11720   0.26940   0.87330   0.00000  Uiso   1.00
C31    C     0.06830   0.31560   0.87250   0.00000  Uiso   1.00
C32    C     0.09650   0.34460   0.87270   0.00000  Uiso   1.00
C33    C     0.14900   0.39980   0.87320   0.00000  Uiso   1.00
H34    H     0.29640   0.58360   0.57850   0.00000  Uiso   1.00
H35    H     0.09810   0.34860   0.81030   0.00000  Uiso   1.00
H36    H     0.19090   0.47310   0.98660   0.00000  Uiso   1.00
H37    H     0.09620   0.39630   0.76830   0.00000  Uiso   1.00
H38    H     0.11790   0.42310   0.70730   0.00000  Uiso   1.00
H39    H     0.16080   0.45330   0.92760   0.00000  Uiso   1.00
H40    H     0.26730   0.52090   0.69000   0.00000  Uiso   1.00
H41    H     0.29650   0.54920   0.63320   0.00000  Uiso   1.00
H42    H     0.16700   0.45160   0.66700   0.00000  Uiso   1.00
H43    H     0.10030   0.34580   0.93520   0.00000  Uiso   1.00
H44    H     0.22210   0.44750   0.76180   0.00000  Uiso   1.00
H45    H     0.15090   0.34570   0.97610   0.00000  Uiso   1.00
H46    H     0.17790   0.36740   0.03720   0.00000  Uiso   1.00
H47    H     0.20300   0.41700   0.82050   0.00000  Uiso   1.00
H48    H     0.23330   0.48030   0.55680   0.00000  Uiso   1.00
H49    H     0.20410   0.45190   0.61360   0.00000  Uiso   1.00
H50    H     0.03590   0.38540   0.87160   0.00000  Uiso   1.00
H51    H     0.14130   0.28680   0.87350   0.00000  Uiso   1.00
H52    H     0.16920   0.42120   0.87350   0.00000  Uiso   1.00
C53    C     0.67190   0.93690   0.22950   0.00000  Uiso   1.00
C54    C     0.79700   0.06530   0.05380   0.00000  Uiso   1.00
C55    C     0.64770   0.90410   0.29980   0.00000  Uiso   1.00
C56    C     0.63500   0.88750   0.33720   0.00000  Uiso   1.00
C57    C     0.60880   0.85940   0.33740   0.00000  Uiso   1.00
C58    C     0.68170   0.94560   0.48500   0.00000  Uiso   1.00
C59    C     0.62420   0.90630   0.26700   0.00000  Uiso   1.00
C60    C     0.63640   0.92210   0.23210   0.00000  Uiso   1.00
C61    C     0.66490   0.93380   0.45070   0.00000  Uiso   1.00
C62    C     0.75930   0.01230   0.16100   0.00000  Uiso   1.00
C63    C     0.73260   0.98540   0.15630   0.00000  Uiso   1.00
C64    C     0.77580   0.02860   0.12850   0.00000  Uiso   1.00
N65    N     0.71650   0.96950   0.19060   0.00000  Uiso   1.00
C66    C     0.68620   0.92200   0.51680   0.00000  Uiso   1.00
C67    C     0.68480   0.95310   0.19240   0.00000  Uiso   1.00
C68    C     0.65340   0.89770   0.44660   0.00000  Uiso   1.00
C69    C     0.63740   0.88470   0.40890   0.00000  Uiso   1.00
C70    C     0.61060   0.85720   0.40820   0.00000  Uiso   1.00
C71    C     0.69500   0.93560   0.26240   0.00000  Uiso   1.00
C72    C     0.65850   0.87390   0.47830   0.00000  Uiso   1.00
C73    C     0.67440   0.88610   0.51320   0.00000  Uiso   1.00
C74    C     0.68350   0.91870   0.29660   0.00000  Uiso   1.00
C75    C     0.74040   0.98970   0.08580   0.00000  Uiso   1.00
C76    C     0.76590   0.01770   0.09050   0.00000  Uiso   1.00
C77    C     0.72350   0.97370   0.11830   0.00000  Uiso   1.00
N78    N     0.78230   0.03340   0.05620   0.00000  Uiso   1.00
C79    C     0.58040   0.77940   0.37280   0.00000  Uiso   1.00
C80    C     0.53080   0.82580   0.37200   0.00000  Uiso   1.00
C81    C     0.51890   0.86140   0.37170   0.00000  Uiso   1.00
C82    C     0.61720   0.76940   0.37330   0.00000  Uiso   1.00
C83    C     0.56830   0.81560   0.37250   0.00000  Uiso   1.00
C84    C     0.59650   0.84460   0.37270   0.00000  Uiso   1.00
C85    C     0.64900   0.89980   0.37320   0.00000  Uiso   1.00
H86    H     0.79640   0.08360   0.07850   0.00000  Uiso   1.00
H87    H     0.59810   0.84860   0.31030   0.00000  Uiso   1.00
H88    H     0.69090   0.97310   0.48660   0.00000  Uiso   1.00
H89    H     0.59620   0.89630   0.26830   0.00000  Uiso   1.00
H90    H     0.61790   0.92310   0.20730   0.00000  Uiso   1.00
H91    H     0.66080   0.95330   0.42760   0.00000  Uiso   1.00
H92    H     0.76730   0.02090   0.19000   0.00000  Uiso   1.00
H93    H     0.79650   0.04920   0.13320   0.00000  Uiso   1.00
H94    H     0.66700   0.95160   0.16700   0.00000  Uiso   1.00
H95    H     0.60030   0.84580   0.43520   0.00000  Uiso   1.00
H96    H     0.72210   0.94750   0.26180   0.00000  Uiso   1.00
H97    H     0.65090   0.84570   0.47610   0.00000  Uiso   1.00
H98    H     0.67790   0.86740   0.53720   0.00000  Uiso   1.00
H99    H     0.70300   0.91700   0.32050   0.00000  Uiso   1.00
H100   H     0.73330   0.98030   0.05680   0.00000  Uiso   1.00
H101   H     0.70410   0.95190   0.11360   0.00000  Uiso   1.00
H102   H     0.53590   0.88540   0.37160   0.00000  Uiso   1.00
H103   H     0.64130   0.78680   0.37350   0.00000  Uiso   1.00
H104   H     0.66920   0.92120   0.37350   0.00000  Uiso   1.00
C105   C     0.82810   0.06310   0.72950   0.00000  Uiso   1.00
C106   C     0.70300   0.93470   0.55380   0.00000  Uiso   1.00
C107   C     0.85230   0.09590   0.79980   0.00000  Uiso   1.00
C108   C     0.86500   0.11250   0.83720   0.00000  Uiso   1.00
C109   C     0.89120   0.14060   0.83740   0.00000  Uiso   1.00
C110   C     0.81830   0.05440   0.98500   0.00000  Uiso   1.00
C111   C     0.87580   0.09370   0.76700   0.00000  Uiso   1.00
C112   C     0.86360   0.07790   0.73210   0.00000  Uiso   1.00
C113   C     0.83510   0.06620   0.95070   0.00000  Uiso   1.00
C114   C     0.74070   0.98770   0.66100   0.00000  Uiso   1.00
C115   C     0.76740   0.01460   0.65630   0.00000  Uiso   1.00
C116   C     0.72420   0.97140   0.62850   0.00000  Uiso   1.00
N117   N     0.78350   0.03050   0.69060   0.00000  Uiso   1.00
C118   C     0.81380   0.07800   0.01680   0.00000  Uiso   1.00
C119   C     0.81520   0.04690   0.69240   0.00000  Uiso   1.00
C120   C     0.84660   0.10230   0.94660   0.00000  Uiso   1.00
C121   C     0.86260   0.11530   0.90890   0.00000  Uiso   1.00
C122   C     0.88940   0.14280   0.90820   0.00000  Uiso   1.00
C123   C     0.80500   0.06440   0.76240   0.00000  Uiso   1.00
C124   C     0.84150   0.12610   0.97830   0.00000  Uiso   1.00
C125   C     0.82560   0.11390   0.01320   0.00000  Uiso   1.00
C126   C     0.81650   0.08130   0.79660   0.00000  Uiso   1.00
C127   C     0.75960   0.01030   0.58580   0.00000  Uiso   1.00
C128   C     0.73410   0.98230   0.59050   0.00000  Uiso   1.00
C129   C     0.77650   0.02630   0.61830   0.00000  Uiso   1.00
N130   N     0.71770   0.96660   0.55620   0.00000  Uiso   1.00
C131   C     0.91960   0.22060   0.87280   0.00000  Uiso   1.00
C132   C     0.96920   0.17420   0.87200   0.00000  Uiso   1.00
C133   C     0.98110   0.13860   0.87170   0.00000  Uiso   1.00
C134   C     0.88280   0.23060   0.87330   0.00000  Uiso   1.00
C135   C     0.93170   0.18440   0.87250   0.00000  Uiso   1.00
C136   C     0.90350   0.15540   0.87270   0.00000  Uiso   1.00
C137   C     0.85100   0.10020   0.87320   0.00000  Uiso   1.00
H138   H     0.70360   0.91640   0.57850   0.00000  Uiso   1.00
H139   H     0.90190   0.15140   0.81030   0.00000  Uiso   1.00
H140   H     0.80910   0.02690   0.98660   0.00000  Uiso   1.00
H141   H     0.90380   0.10370   0.76830   0.00000  Uiso   1.00
H142   H     0.88210   0.07690   0.70730   0.00000  Uiso   1.00
H143   H     0.83920   0.04670   0.92760   0.00000  Uiso   1.00
H144   H     0.73270   0.97910   0.69000   0.00000  Uiso   1.00
H145   H     0.70350   0.95080   0.63320   0.00000  Uiso   1.00
H146   H     0.83300   0.04840   0.66700   0.00000  Uiso   1.00
H147   H     0.89970   0.15420   0.93520   0.00000  Uiso   1.00
H148   H     0.77790   0.05250   0.76180   0.00000  Uiso   1.00
H149   H     0.84910   0.15430   0.97610   0.00000  Uiso   1.00
H150   H     0.82210   0.13260   0.03720   0.00000  Uiso   1.00
H151   H     0.79700   0.08300   0.82050   0.00000  Uiso   1.00
H152   H     0.76670   0.01970   0.55680   0.00000  Uiso   1.00
H153   H     0.79590   0.04810   0.61360   0.00000  Uiso   1.00
H154   H     0.96410   0.11460   0.87160   0.00000  Uiso   1.00
H155   H     0.85870   0.21320   0.87350   0.00000  Uiso   1.00
H156   H     0.83080   0.07880   0.87350   0.00000  Uiso   1.00
C157   C     0.32810   0.56310   0.22950   0.00000  Uiso   1.00
C158   C     0.20300   0.43470   0.05380   0.00000  Uiso   1.00
C159   C     0.35230   0.59590   0.29980   0.00000  Uiso   1.00
C160   C     0.36500   0.61250   0.33720   0.00000  Uiso   1.00
C161   C     0.39120   0.64060   0.33740   0.00000  Uiso   1.00
C162   C     0.31830   0.55440   0.48500   0.00000  Uiso   1.00
C163   C     0.37580   0.59370   0.26700   0.00000  Uiso   1.00
C164   C     0.36360   0.57790   0.23210   0.00000  Uiso   1.00
C165   C     0.33510   0.56620   0.45070   0.00000  Uiso   1.00
C166   C     0.24070   0.48770   0.16100   0.00000  Uiso   1.00
C167   C     0.26740   0.51460   0.15630   0.00000  Uiso   1.00
C168   C     0.22420   0.47140   0.12850   0.00000  Uiso   1.00
N169   N     0.28350   0.53050   0.19060   0.00000  Uiso   1.00
C170   C     0.31380   0.57800   0.51680   0.00000  Uiso   1.00
C171   C     0.31520   0.54690   0.19240   0.00000  Uiso   1.00
C172   C     0.34660   0.60230   0.44660   0.00000  Uiso   1.00
C173   C     0.36260   0.61530   0.40890   0.00000  Uiso   1.00
C174   C     0.38940   0.64280   0.40820   0.00000  Uiso   1.00
C175   C     0.30500   0.56440   0.26240   0.00000  Uiso   1.00
C176   C     0.34150   0.62610   0.47830   0.00000  Uiso   1.00
C177   C     0.32560   0.61390   0.51320   0.00000  Uiso   1.00
C178   C     0.31650   0.58130   0.29660   0.00000  Uiso   1.00
C179   C     0.25960   0.51030   0.08580   0.00000  Uiso   1.00
C180   C     0.23410   0.48230   0.09050   0.00000  Uiso   1.00
C181   C     0.27650   0.52630   0.11830   0.00000  Uiso   1.00
N182   N     0.21770   0.46660   0.05620   0.00000  Uiso   1.00
C183   C     0.41960   0.72060   0.37280   0.00000  Uiso   1.00
C184   C     0.46920   0.67420   0.37200   0.00000  Uiso   1.00
C185   C     0.48110   0.63860   0.37170   0.00000  Uiso   1.00
C186   C     0.38280   0.73060   0.37330   0.00000  Uiso   1.00
C187   C     0.43170   0.68440   0.37250   0.00000  Uiso   1.00
C188   C     0.40350   0.65540   0.37270   0.00000  Uiso   1.00
C189   C     0.35100   0.60020   0.37320   0.00000  Uiso   1.00
H190   H     0.20360   0.41640   0.07850   0.00000  Uiso   1.00
H191   H     0.40190   0.65140   0.31030   0.00000  Uiso   1.00
H192   H     0.30910   0.52690   0.48660   0.00000  Uiso   1.00
H193   H     0.40380   0.60370   0.26830   0.00000  Uiso   1.00
H194   H     0.38210   0.57690   0.20730   0.00000  Uiso   1.00
H195   H     0.33920   0.54670   0.42760   0.00000  Uiso   1.00
H196   H     0.23270   0.47910   0.19000   0.00000  Uiso   1.00
H197   H     0.20350   0.45080   0.13320   0.00000  Uiso   1.00
H198   H     0.33300   0.54840   0.16700   0.00000  Uiso   1.00
H199   H     0.39970   0.65420   0.43520   0.00000  Uiso   1.00
H200   H     0.27790   0.55250   0.26180   0.00000  Uiso   1.00
H201   H     0.34910   0.65430   0.47610   0.00000  Uiso   1.00
H202   H     0.32210   0.63260   0.53720   0.00000  Uiso   1.00
H203   H     0.29700   0.58300   0.32050   0.00000  Uiso   1.00
H204   H     0.26670   0.51970   0.05680   0.00000  Uiso   1.00
H205   H     0.29590   0.54810   0.11360   0.00000  Uiso   1.00
H206   H     0.46410   0.61460   0.37160   0.00000  Uiso   1.00
H207   H     0.35870   0.71320   0.37350   0.00000  Uiso   1.00
H208   H     0.33080   0.57880   0.37350   0.00000  Uiso   1.00
C209   C     0.82810   0.93690   0.27050   0.00000  Uiso   1.00
C210   C     0.70300   0.06530   0.44620   0.00000  Uiso   1.00
C211   C     0.85230   0.90410   0.20020   0.00000  Uiso   1.00
C212   C     0.86500   0.88750   0.16280   0.00000  Uiso   1.00
C213   C     0.89120   0.85940   0.16260   0.00000  Uiso   1.00
C214   C     0.81830   0.94560   0.01500   0.00000  Uiso   1.00
C215   C     0.87580   0.90630   0.23300   0.00000  Uiso   1.00
C216   C     0.86360   0.92210   0.26790   0.00000  Uiso   1.00
C217   C     0.83510   0.93380   0.04930   0.00000  Uiso   1.00
C218   C     0.74070   0.01230   0.33900   0.00000  Uiso   1.00
C219   C     0.76740   0.98540   0.34370   0.00000  Uiso   1.00
C220   C     0.72420   0.02860   0.37150   0.00000  Uiso   1.00
N221   N     0.78350   0.96950   0.30940   0.00000  Uiso   1.00
C222   C     0.81380   0.92200   0.98320   0.00000  Uiso   1.00
C223   C     0.81520   0.95310   0.30760   0.00000  Uiso   1.00
C224   C     0.84660   0.89770   0.05340   0.00000  Uiso   1.00
C225   C     0.86260   0.88470   0.09110   0.00000  Uiso   1.00
C226   C     0.88940   0.85720   0.09180   0.00000  Uiso   1.00
C227   C     0.80500   0.93560   0.23760   0.00000  Uiso   1.00
C228   C     0.84150   0.87390   0.02170   0.00000  Uiso   1.00
C229   C     0.82560   0.88610   0.98680   0.00000  Uiso   1.00
C230   C     0.81650   0.91870   0.20340   0.00000  Uiso   1.00
C231   C     0.75960   0.98970   0.41420   0.00000  Uiso   1.00
C232   C     0.73410   0.01770   0.40950   0.00000  Uiso   1.00
C233   C     0.77650   0.97370   0.38170   0.00000  Uiso   1.00
N234   N     0.71770   0.03340   0.44380   0.00000  Uiso   1.00
C235   C     0.91960   0.77940   0.12720   0.00000  Uiso   1.00
C236   C     0.96920   0.82580   0.12800   0.00000  Uiso   1.00
C237   C     0.98110   0.86140   0.12830   0.00000  Uiso   1.00
C238   C     0.88280   0.76940   0.12670   0.00000  Uiso   1.00
C239   C     0.93170   0.81560   0.12750   0.00000  Uiso   1.00
C240   C     0.90350   0.84460   0.12730   0.00000  Uiso   1.00
C241   C     0.85100   0.89980   0.12680   0.00000  Uiso   1.00
H242   H     0.70360   0.08360   0.42150   0.00000  Uiso   1.00
H243   H     0.90190   0.84860   0.18970   0.00000  Uiso   1.00
H244   H     0.80910   0.97310   0.01340   0.00000  Uiso   1.00
H245   H     0.90380   0.89630   0.23170   0.00000  Uiso   1.00
H246   H     0.88210   0.92310   0.29270   0.00000  Uiso   1.00
H247   H     0.83920   0.95330   0.07240   0.00000  Uiso   1.00
H248   H     0.73270   0.02090   0.31000   0.00000  Uiso   1.00
H249   H     0.70350   0.04920   0.36680   0.00000  Uiso   1.00
H250   H     0.83300   0.95160   0.33300   0.00000  Uiso   1.00
H251   H     0.89970   0.84580   0.06480   0.00000  Uiso   1.00
H252   H     0.77790   0.94750   0.23820   0.00000  Uiso   1.00
H253   H     0.84910   0.84570   0.02390   0.00000  Uiso   1.00
H254   H     0.82210   0.86740   0.96280   0.00000  Uiso   1.00
H255   H     0.79700   0.91700   0.17950   0.00000  Uiso   1.00
H256   H     0.76670   0.98030   0.44320   0.00000  Uiso   1.00
H257   H     0.79590   0.95190   0.38640   0.00000  Uiso   1.00
H258   H     0.96410   0.88540   0.12840   0.00000  Uiso   1.00
H259   H     0.85870   0.78680   0.12650   0.00000  Uiso   1.00
H260   H     0.83080   0.92120   0.12650   0.00000  Uiso   1.00
C261   C     0.32810   0.43690   0.77050   0.00000  Uiso   1.00
C262   C     0.20300   0.56530   0.94620   0.00000  Uiso   1.00
C263   C     0.35230   0.40410   0.70020   0.00000  Uiso   1.00
C264   C     0.36500   0.38750   0.66280   0.00000  Uiso   1.00
C265   C     0.39120   0.35940   0.66260   0.00000  Uiso   1.00
C266   C     0.31830   0.44560   0.51500   0.00000  Uiso   1.00
C267   C     0.37580   0.40630   0.73300   0.00000  Uiso   1.00
C268   C     0.36360   0.42210   0.76790   0.00000  Uiso   1.00
C269   C     0.33510   0.43380   0.54930   0.00000  Uiso   1.00
C270   C     0.24070   0.51230   0.83900   0.00000  Uiso   1.00
C271   C     0.26740   0.48540   0.84370   0.00000  Uiso   1.00
C272   C     0.22420   0.52860   0.87150   0.00000  Uiso   1.00
N273   N     0.28350   0.46950   0.80940   0.00000  Uiso   1.00
C274   C     0.31380   0.42200   0.48320   0.00000  Uiso   1.00
C275   C     0.31520   0.45310   0.80760   0.00000  Uiso   1.00
C276   C     0.34660   0.39770   0.55340   0.00000  Uiso   1.00
C277   C     0.36260   0.38470   0.59110   0.00000  Uiso   1.00
C278   C     0.38940   0.35720   0.59180   0.00000  Uiso   1.00
C279   C     0.30500   0.43560   0.73760   0.00000  Uiso   1.00
C280   C     0.34150   0.37390   0.52170   0.00000  Uiso   1.00
C281   C     0.32560   0.38610   0.48680   0.00000  Uiso   1.00
C282   C     0.31650   0.41870   0.70340   0.00000  Uiso   1.00
C283   C     0.25960   0.48970   0.91420   0.00000  Uiso   1.00
C284   C     0.23410   0.51770   0.90950   0.00000  Uiso   1.00
C285   C     0.27650   0.47370   0.88170   0.00000  Uiso   1.00
N286   N     0.21770   0.53340   0.94380   0.00000  Uiso   1.00
C287   C     0.41960   0.27940   0.62720   0.00000  Uiso   1.00
C288   C     0.46920   0.32580   0.62800   0.00000  Uiso   1.00
C289   C     0.48110   0.36140   0.62830   0.00000  Uiso   1.00
C290   C     0.38280   0.26940   0.62670   0.00000  Uiso   1.00
C291   C     0.43170   0.31560   0.62750   0.00000  Uiso   1.00
C292   C     0.40350   0.34460   0.62730   0.00000  Uiso   1.00
C293   C     0.35100   0.39980   0.62680   0.00000  Uiso   1.00
H294   H     0.20360   0.58360   0.92150   0.00000  Uiso   1.00
H295   H     0.40190   0.34860   0.68970   0.00000  Uiso   1.00
H296   H     0.30910   0.47310   0.51340   0.00000  Uiso   1.00
H297   H     0.40380   0.39630   0.73170   0.00000  Uiso   1.00
H298   H     0.38210   0.42310   0.79270   0.00000  Uiso   1.00
H299   H     0.33920   0.45330   0.57240   0.00000  Uiso   1.00
H300   H     0.23270   0.52090   0.81000   0.00000  Uiso   1.00
H301   H     0.20350   0.54920   0.86680   0.00000  Uiso   1.00
H302   H     0.33300   0.45160   0.83300   0.00000  Uiso   1.00
H303   H     0.39970   0.34580   0.56480   0.00000  Uiso   1.00
H304   H     0.27790   0.44750   0.73820   0.00000  Uiso   1.00
H305   H     0.34910   0.34570   0.52390   0.00000  Uiso   1.00
H306   H     0.32210   0.36740   0.46280   0.00000  Uiso   1.00
H307   H     0.29700   0.41700   0.67950   0.00000  Uiso   1.00
H308   H     0.26670   0.48030   0.94320   0.00000  Uiso   1.00
H309   H     0.29590   0.45190   0.88640   0.00000  Uiso   1.00
H310   H     0.46410   0.38540   0.62840   0.00000  Uiso   1.00
H311   H     0.35870   0.28680   0.62650   0.00000  Uiso   1.00
H312   H     0.33080   0.42120   0.62650   0.00000  Uiso   1.00
C313   C     0.17190   0.56310   0.27050   0.00000  Uiso   1.00
C314   C     0.29700   0.43470   0.44620   0.00000  Uiso   1.00
C315   C     0.14770   0.59590   0.20020   0.00000  Uiso   1.00
C316   C     0.13500   0.61250   0.16280   0.00000  Uiso   1.00
C317   C     0.10880   0.64060   0.16260   0.00000  Uiso   1.00
C318   C     0.18170   0.55440   0.01500   0.00000  Uiso   1.00
C319   C     0.12420   0.59370   0.23300   0.00000  Uiso   1.00
C320   C     0.13640   0.57790   0.26790   0.00000  Uiso   1.00
C321   C     0.16490   0.56620   0.04930   0.00000  Uiso   1.00
C322   C     0.25930   0.48770   0.33900   0.00000  Uiso   1.00
C323   C     0.23260   0.51460   0.34370   0.00000  Uiso   1.00
C324   C     0.27580   0.47140   0.37150   0.00000  Uiso   1.00
N325   N     0.21650   0.53050   0.30940   0.00000  Uiso   1.00
C326   C     0.18620   0.57800   0.98320   0.00000  Uiso   1.00
C327   C     0.18480   0.54690   0.30760   0.00000  Uiso   1.00
C328   C     0.15340   0.60230   0.05340   0.00000  Uiso   1.00
C329   C     0.13740   0.61530   0.09110   0.00000  Uiso   1.00
C330   C     0.11060   0.64280   0.09180   0.00000  Uiso   1.00
C331   C     0.19500   0.56440   0.23760   0.00000  Uiso   1.00
C332   C     0.15850   0.62610   0.02170   0.00000  Uiso   1.00
C333   C     0.17440   0.61390   0.98680   0.00000  Uiso   1.00
C334   C     0.18350   0.58130   0.20340   0.00000  Uiso   1.00
C335   C     0.24040   0.51030   0.41420   0.00000  Uiso   1.00
C336   C     0.26590   0.48230   0.40950   0.00000  Uiso   1.00
C337   C     0.22350   0.52630   0.38170   0.00000  Uiso   1.00
N338   N     0.28230   0.46660   0.44380   0.00000  Uiso   1.00
C339   C     0.08040   0.72060   0.12720   0.00000  Uiso   1.00
C340   C     0.03080   0.67420   0.12800   0.00000  Uiso   1.00
C341   C     0.01890   0.63860   0.12830   0.00000  Uiso   1.00
C342   C     0.11720   0.73060   0.12670   0.00000  Uiso   1.00
C343   C     0.06830   0.68440   0.12750   0.00000  Uiso   1.00
C344   C     0.09650   0.65540   0.12730   0.00000  Uiso   1.00
C345   C     0.14900   0.60020   0.12680   0.00000  Uiso   1.00
H346   H     0.29640   0.41640   0.42150   0.00000  Uiso   1.00
H347   H     0.09810   0.65140   0.18970   0.00000  Uiso   1.00
H348   H     0.19090   0.52690   0.01340   0.00000  Uiso   1.00
H349   H     0.09620   0.60370   0.23170   0.00000  Uiso   1.00
H350   H     0.11790   0.57690   0.29270   0.00000  Uiso   1.00
H351   H     0.16080   0.54670   0.07240   0.00000  Uiso   1.00
H352   H     0.26730   0.47910   0.31000   0.00000  Uiso   1.00
H353   H     0.29650   0.45080   0.36680   0.00000  Uiso   1.00
H354   H     0.16700   0.54840   0.33300   0.00000  Uiso   1.00
H355   H     0.10030   0.65420   0.06480   0.00000  Uiso   1.00
H356   H     0.22210   0.55250   0.23820   0.00000  Uiso   1.00
H357   H     0.15090   0.65430   0.02390   0.00000  Uiso   1.00
H358   H     0.17790   0.63260   0.96280   0.00000  Uiso   1.00
H359   H     0.20300   0.58300   0.17950   0.00000  Uiso   1.00
H360   H     0.23330   0.51970   0.44320   0.00000  Uiso   1.00
H361   H     0.20410   0.54810   0.38640   0.00000  Uiso   1.00
H362   H     0.03590   0.61460   0.12840   0.00000  Uiso   1.00
H363   H     0.14130   0.71320   0.12650   0.00000  Uiso   1.00
H364   H     0.16920   0.57880   0.12650   0.00000  Uiso   1.00
C365   C     0.67190   0.06310   0.77050   0.00000  Uiso   1.00
C366   C     0.79700   0.93470   0.94620   0.00000  Uiso   1.00
C367   C     0.64770   0.09590   0.70020   0.00000  Uiso   1.00
C368   C     0.63500   0.11250   0.66280   0.00000  Uiso   1.00
C369   C     0.60880   0.14060   0.66260   0.00000  Uiso   1.00
C370   C     0.68170   0.05440   0.51500   0.00000  Uiso   1.00
C371   C     0.62420   0.09370   0.73300   0.00000  Uiso   1.00
C372   C     0.63640   0.07790   0.76790   0.00000  Uiso   1.00
C373   C     0.66490   0.06620   0.54930   0.00000  Uiso   1.00
C374   C     0.75930   0.98770   0.83900   0.00000  Uiso   1.00
C375   C     0.73260   0.01460   0.84370   0.00000  Uiso   1.00
C376   C     0.77580   0.97140   0.87150   0.00000  Uiso   1.00
N377   N     0.71650   0.03050   0.80940   0.00000  Uiso   1.00
C378   C     0.68620   0.07800   0.48320   0.00000  Uiso   1.00
C379   C     0.68480   0.04690   0.80760   0.00000  Uiso   1.00
C380   C     0.65340   0.10230   0.55340   0.00000  Uiso   1.00
C381   C     0.63740   0.11530   0.59110   0.00000  Uiso   1.00
C382   C     0.61060   0.14280   0.59180   0.00000  Uiso   1.00
C383   C     0.69500   0.06440   0.73760   0.00000  Uiso   1.00
C384   C     0.65850   0.12610   0.52170   0.00000  Uiso   1.00
C385   C     0.67440   0.11390   0.48680   0.00000  Uiso   1.00
C386   C     0.68350   0.08130   0.70340   0.00000  Uiso   1.00
C387   C     0.74040   0.01030   0.91420   0.00000  Uiso   1.00
C388   C     0.76590   0.98230   0.90950   0.00000  Uiso   1.00
C389   C     0.72350   0.02630   0.88170   0.00000  Uiso   1.00
N390   N     0.78230   0.96660   0.94380   0.00000  Uiso   1.00
C391   C     0.58040   0.22060   0.62720   0.00000  Uiso   1.00
C392   C     0.53080   0.17420   0.62800   0.00000  Uiso   1.00
C393   C     0.51890   0.13860   0.62830   0.00000  Uiso   1.00
C394   C     0.61720   0.23060   0.62670   0.00000  Uiso   1.00
C395   C     0.56830   0.18440   0.62750   0.00000  Uiso   1.00
C396   C     0.59650   0.15540   0.62730   0.00000  Uiso   1.00
C397   C     0.64900   0.10020   0.62680   0.00000  Uiso   1.00
H398   H     0.79640   0.91640   0.92150   0.00000  Uiso   1.00
H399   H     0.59810   0.15140   0.68970   0.00000  Uiso   1.00
H400   H     0.69090   0.02690   0.51340   0.00000  Uiso   1.00
H401   H     0.59620   0.10370   0.73170   0.00000  Uiso   1.00
H402   H     0.61790   0.07690   0.79270   0.00000  Uiso   1.00
H403   H     0.66080   0.04670   0.57240   0.00000  Uiso   1.00
H404   H     0.76730   0.97910   0.81000   0.00000  Uiso   1.00
H405   H     0.79650   0.95080   0.86680   0.00000  Uiso   1.00
H406   H     0.66700   0.04840   0.83300   0.00000  Uiso   1.00
H407   H     0.60030   0.15420   0.56480   0.00000  Uiso   1.00
H408   H     0.72210   0.05250   0.73820   0.00000  Uiso   1.00
H409   H     0.65090   0.15430   0.52390   0.00000  Uiso   1.00
H410   H     0.67790   0.13260   0.46280   0.00000  Uiso   1.00
H411   H     0.70300   0.08300   0.67950   0.00000  Uiso   1.00
H412   H     0.73330   0.01970   0.94320   0.00000  Uiso   1.00
H413   H     0.70410   0.04810   0.88640   0.00000  Uiso   1.00
H414   H     0.53590   0.11460   0.62840   0.00000  Uiso   1.00
H415   H     0.64130   0.21320   0.62650   0.00000  Uiso   1.00
H416   H     0.66920   0.07880   0.62650   0.00000  Uiso   1.00
C417   C     0.82810   0.56310   0.27050   0.00000  Uiso   1.00
C418   C     0.70300   0.43470   0.44620   0.00000  Uiso   1.00
C419   C     0.85230   0.59590   0.20020   0.00000  Uiso   1.00
C420   C     0.86500   0.61250   0.16280   0.00000  Uiso   1.00
C421   C     0.89120   0.64060   0.16260   0.00000  Uiso   1.00
C422   C     0.81830   0.55440   0.01500   0.00000  Uiso   1.00
C423   C     0.87580   0.59370   0.23300   0.00000  Uiso   1.00
C424   C     0.86360   0.57790   0.26790   0.00000  Uiso   1.00
C425   C     0.83510   0.56620   0.04930   0.00000  Uiso   1.00
C426   C     0.74070   0.48770   0.33900   0.00000  Uiso   1.00
C427   C     0.76740   0.51460   0.34370   0.00000  Uiso   1.00
C428   C     0.72420   0.47140   0.37150   0.00000  Uiso   1.00
N429   N     0.78350   0.53050   0.30940   0.00000  Uiso   1.00
C430   C     0.81380   0.57800   0.98320   0.00000  Uiso   1.00
C431   C     0.81520   0.54690   0.30760   0.00000  Uiso   1.00
C432   C     0.84660   0.60230   0.05340   0.00000  Uiso   1.00
C433   C     0.86260   0.61530   0.09110   0.00000  Uiso   1.00
C434   C     0.88940   0.64280   0.09180   0.00000  Uiso   1.00
C435   C     0.80500   0.56440   0.23760   0.00000  Uiso   1.00
C436   C     0.84150   0.62610   0.02170   0.00000  Uiso   1.00
C437   C     0.82560   0.61390   0.98680   0.00000  Uiso   1.00
C438   C     0.81650   0.58130   0.20340   0.00000  Uiso   1.00
C439   C     0.75960   0.51030   0.41420   0.00000  Uiso   1.00
C440   C     0.73410   0.48230   0.40950   0.00000  Uiso   1.00
C441   C     0.77650   0.52630   0.38170   0.00000  Uiso   1.00
N442   N     0.71770   0.46660   0.44380   0.00000  Uiso   1.00
C443   C     0.91960   0.72060   0.12720   0.00000  Uiso   1.00
C444   C     0.96920   0.67420   0.12800   0.00000  Uiso   1.00
C445   C     0.98110   0.63860   0.12830   0.00000  Uiso   1.00
C446   C     0.88280   0.73060   0.12670   0.00000  Uiso   1.00
C447   C     0.93170   0.68440   0.12750   0.00000  Uiso   1.00
C448   C     0.90350   0.65540   0.12730   0.00000  Uiso   1.00
C449   C     0.85100   0.60020   0.12680   0.00000  Uiso   1.00
H450   H     0.70360   0.41640   0.42150   0.00000  Uiso   1.00
H451   H     0.90190   0.65140   0.18970   0.00000  Uiso   1.00
H452   H     0.80910   0.52690   0.01340   0.00000  Uiso   1.00
H453   H     0.90380   0.60370   0.23170   0.00000  Uiso   1.00
H454   H     0.88210   0.57690   0.29270   0.00000  Uiso   1.00
H455   H     0.83920   0.54670   0.07240   0.00000  Uiso   1.00
H456   H     0.73270   0.47910   0.31000   0.00000  Uiso   1.00
H457   H     0.70350   0.45080   0.36680   0.00000  Uiso   1.00
H458   H     0.83300   0.54840   0.33300   0.00000  Uiso   1.00
H459   H     0.89970   0.65420   0.06480   0.00000  Uiso   1.00
H460   H     0.77790   0.55250   0.23820   0.00000  Uiso   1.00
H461   H     0.84910   0.65430   0.02390   0.00000  Uiso   1.00
H462   H     0.82210   0.63260   0.96280   0.00000  Uiso   1.00
H463   H     0.79700   0.58300   0.17950   0.00000  Uiso   1.00
H464   H     0.76670   0.51970   0.44320   0.00000  Uiso   1.00
H465   H     0.79590   0.54810   0.38640   0.00000  Uiso   1.00
H466   H     0.96410   0.61460   0.12840   0.00000  Uiso   1.00
H467   H     0.85870   0.71320   0.12650   0.00000  Uiso   1.00
H468   H     0.83080   0.57880   0.12650   0.00000  Uiso   1.00
C469   C     0.32810   0.06310   0.77050   0.00000  Uiso   1.00
C470   C     0.20300   0.93470   0.94620   0.00000  Uiso   1.00
C471   C     0.35230   0.09590   0.70020   0.00000  Uiso   1.00
C472   C     0.36500   0.11250   0.66280   0.00000  Uiso   1.00
C473   C     0.39120   0.14060   0.66260   0.00000  Uiso   1.00
C474   C     0.31830   0.05440   0.51500   0.00000  Uiso   1.00
C475   C     0.37580   0.09370   0.73300   0.00000  Uiso   1.00
C476   C     0.36360   0.07790   0.76790   0.00000  Uiso   1.00
C477   C     0.33510   0.06620   0.54930   0.00000  Uiso   1.00
C478   C     0.24070   0.98770   0.83900   0.00000  Uiso   1.00
C479   C     0.26740   0.01460   0.84370   0.00000  Uiso   1.00
C480   C     0.22420   0.97140   0.87150   0.00000  Uiso   1.00
N481   N     0.28350   0.03050   0.80940   0.00000  Uiso   1.00
C482   C     0.31380   0.07800   0.48320   0.00000  Uiso   1.00
C483   C     0.31520   0.04690   0.80760   0.00000  Uiso   1.00
C484   C     0.34660   0.10230   0.55340   0.00000  Uiso   1.00
C485   C     0.36260   0.11530   0.59110   0.00000  Uiso   1.00
C486   C     0.38940   0.14280   0.59180   0.00000  Uiso   1.00
C487   C     0.30500   0.06440   0.73760   0.00000  Uiso   1.00
C488   C     0.34150   0.12610   0.52170   0.00000  Uiso   1.00
C489   C     0.32560   0.11390   0.48680   0.00000  Uiso   1.00
C490   C     0.31650   0.08130   0.70340   0.00000  Uiso   1.00
C491   C     0.25960   0.01030   0.91420   0.00000  Uiso   1.00
C492   C     0.23410   0.98230   0.90950   0.00000  Uiso   1.00
C493   C     0.27650   0.02630   0.88170   0.00000  Uiso   1.00
N494   N     0.21770   0.96660   0.94380   0.00000  Uiso   1.00
C495   C     0.41960   0.22060   0.62720   0.00000  Uiso   1.00
C496   C     0.46920   0.17420   0.62800   0.00000  Uiso   1.00
C497   C     0.48110   0.13860   0.62830   0.00000  Uiso   1.00
C498   C     0.38280   0.23060   0.62670   0.00000  Uiso   1.00
C499   C     0.43170   0.18440   0.62750   0.00000  Uiso   1.00
C500   C     0.40350   0.15540   0.62730   0.00000  Uiso   1.00
C501   C     0.35100   0.10020   0.62680   0.00000  Uiso   1.00
H502   H     0.20360   0.91640   0.92150   0.00000  Uiso   1.00
H503   H     0.40190   0.15140   0.68970   0.00000  Uiso   1.00
H504   H     0.30910   0.02690   0.51340   0.00000  Uiso   1.00
H505   H     0.40380   0.10370   0.73170   0.00000  Uiso   1.00
H506   H     0.38210   0.07690   0.79270   0.00000  Uiso   1.00
H507   H     0.33920   0.04670   0.57240   0.00000  Uiso   1.00
H508   H     0.23270   0.97910   0.81000   0.00000  Uiso   1.00
H509   H     0.20350   0.95080   0.86680   0.00000  Uiso   1.00
H510   H     0.33300   0.04840   0.83300   0.00000  Uiso   1.00
H511   H     0.39970   0.15420   0.56480   0.00000  Uiso   1.00
H512   H     0.27790   0.05250   0.73820   0.00000  Uiso   1.00
H513   H     0.34910   0.15430   0.52390   0.00000  Uiso   1.00
H514   H     0.32210   0.13260   0.46280   0.00000  Uiso   1.00
H515   H     0.29700   0.08300   0.67950   0.00000  Uiso   1.00
H516   H     0.26670   0.01970   0.94320   0.00000  Uiso   1.00
H517   H     0.29590   0.04810   0.88640   0.00000  Uiso   1.00
H518   H     0.46410   0.11460   0.62840   0.00000  Uiso   1.00
H519   H     0.35870   0.21320   0.62650   0.00000  Uiso   1.00
H520   H     0.33080   0.07880   0.62650   0.00000  Uiso   1.00
C521   C     0.17190   0.93690   0.27050   0.00000  Uiso   1.00
C522   C     0.29700   0.06530   0.44620   0.00000  Uiso   1.00
C523   C     0.14770   0.90410   0.20020   0.00000  Uiso   1.00
C524   C     0.13500   0.88750   0.16280   0.00000  Uiso   1.00
C525   C     0.10880   0.85940   0.16260   0.00000  Uiso   1.00
C526   C     0.18170   0.94560   0.01500   0.00000  Uiso   1.00
C527   C     0.12420   0.90630   0.23300   0.00000  Uiso   1.00
C528   C     0.13640   0.92210   0.26790   0.00000  Uiso   1.00
C529   C     0.16490   0.93380   0.04930   0.00000  Uiso   1.00
C530   C     0.25930   0.01230   0.33900   0.00000  Uiso   1.00
C531   C     0.23260   0.98540   0.34370   0.00000  Uiso   1.00
C532   C     0.27580   0.02860   0.37150   0.00000  Uiso   1.00
N533   N     0.21650   0.96950   0.30940   0.00000  Uiso   1.00
C534   C     0.18620   0.92200   0.98320   0.00000  Uiso   1.00
C535   C     0.18480   0.95310   0.30760   0.00000  Uiso   1.00
C536   C     0.15340   0.89770   0.05340   0.00000  Uiso   1.00
C537   C     0.13740   0.88470   0.09110   0.00000  Uiso   1.00
C538   C     0.11060   0.85720   0.09180   0.00000  Uiso   1.00
C539   C     0.19500   0.93560   0.23760   0.00000  Uiso   1.00
C540   C     0.15850   0.87390   0.02170   0.00000  Uiso   1.00
C541   C     0.17440   0.88610   0.98680   0.00000  Uiso   1.00
C542   C     0.18350   0.91870   0.20340   0.00000  Uiso   1.00
C543   C     0.24040   0.98970   0.41420   0.00000  Uiso   1.00
C544   C     0.26590   0.01770   0.40950   0.00000  Uiso   1.00
C545   C     0.22350   0.97370   0.38170   0.00000  Uiso   1.00
N546   N     0.28230   0.03340   0.44380   0.00000  Uiso   1.00
C547   C     0.08040   0.77940   0.12720   0.00000  Uiso   1.00
C548   C     0.03080   0.82580   0.12800   0.00000  Uiso   1.00
C549   C     0.01890   0.86140   0.12830   0.00000  Uiso   1.00
C550   C     0.11720   0.76940   0.12670   0.00000  Uiso   1.00
C551   C     0.06830   0.81560   0.12750   0.00000  Uiso   1.00
C552   C     0.09650   0.84460   0.12730   0.00000  Uiso   1.00
C553   C     0.14900   0.89980   0.12680   0.00000  Uiso   1.00
H554   H     0.29640   0.08360   0.42150   0.00000  Uiso   1.00
H555   H     0.09810   0.84860   0.18970   0.00000  Uiso   1.00
H556   H     0.19090   0.97310   0.01340   0.00000  Uiso   1.00
H557   H     0.09620   0.89630   0.23170   0.00000  Uiso   1.00
H558   H     0.11790   0.92310   0.29270   0.00000  Uiso   1.00
H559   H     0.16080   0.95330   0.07240   0.00000  Uiso   1.00
H560   H     0.26730   0.02090   0.31000   0.00000  Uiso   1.00
H561   H     0.29650   0.04920   0.36680   0.00000  Uiso   1.00
H562   H     0.16700   0.95160   0.33300   0.00000  Uiso   1.00
H563   H     0.10030   0.84580   0.06480   0.00000  Uiso   1.00
H564   H     0.22210   0.94750   0.23820   0.00000  Uiso   1.00
H565   H     0.15090   0.84570   0.02390   0.00000  Uiso   1.00
H566   H     0.17790   0.86740   0.96280   0.00000  Uiso   1.00
H567   H     0.20300   0.91700   0.17950   0.00000  Uiso   1.00
H568   H     0.23330   0.98030   0.44320   0.00000  Uiso   1.00
H569   H     0.20410   0.95190   0.38640   0.00000  Uiso   1.00
H570   H     0.03590   0.88540   0.12840   0.00000  Uiso   1.00
H571   H     0.14130   0.78680   0.12650   0.00000  Uiso   1.00
H572   H     0.16920   0.92120   0.12650   0.00000  Uiso   1.00
C573   C     0.67190   0.43690   0.77050   0.00000  Uiso   1.00
C574   C     0.79700   0.56530   0.94620   0.00000  Uiso   1.00
C575   C     0.64770   0.40410   0.70020   0.00000  Uiso   1.00
C576   C     0.63500   0.38750   0.66280   0.00000  Uiso   1.00
C577   C     0.60880   0.35940   0.66260   0.00000  Uiso   1.00
C578   C     0.68170   0.44560   0.51500   0.00000  Uiso   1.00
C579   C     0.62420   0.40630   0.73300   0.00000  Uiso   1.00
C580   C     0.63640   0.42210   0.76790   0.00000  Uiso   1.00
C581   C     0.66490   0.43380   0.54930   0.00000  Uiso   1.00
C582   C     0.75930   0.51230   0.83900   0.00000  Uiso   1.00
C583   C     0.73260   0.48540   0.84370   0.00000  Uiso   1.00
C584   C     0.77580   0.52860   0.87150   0.00000  Uiso   1.00
N585   N     0.71650   0.46950   0.80940   0.00000  Uiso   1.00
C586   C     0.68620   0.42200   0.48320   0.00000  Uiso   1.00
C587   C     0.68480   0.45310   0.80760   0.00000  Uiso   1.00
C588   C     0.65340   0.39770   0.55340   0.00000  Uiso   1.00
C589   C     0.63740   0.38470   0.59110   0.00000  Uiso   1.00
C590   C     0.61060   0.35720   0.59180   0.00000  Uiso   1.00
C591   C     0.69500   0.43560   0.73760   0.00000  Uiso   1.00
C592   C     0.65850   0.37390   0.52170   0.00000  Uiso   1.00
C593   C     0.67440   0.38610   0.48680   0.00000  Uiso   1.00
C594   C     0.68350   0.41870   0.70340   0.00000  Uiso   1.00
C595   C     0.74040   0.48970   0.91420   0.00000  Uiso   1.00
C596   C     0.76590   0.51770   0.90950   0.00000  Uiso   1.00
C597   C     0.72350   0.47370   0.88170   0.00000  Uiso   1.00
N598   N     0.78230   0.53340   0.94380   0.00000  Uiso   1.00
C599   C     0.58040   0.27940   0.62720   0.00000  Uiso   1.00
C600   C     0.53080   0.32580   0.62800   0.00000  Uiso   1.00
C601   C     0.51890   0.36140   0.62830   0.00000  Uiso   1.00
C602   C     0.61720   0.26940   0.62670   0.00000  Uiso   1.00
C603   C     0.56830   0.31560   0.62750   0.00000  Uiso   1.00
C604   C     0.59650   0.34460   0.62730   0.00000  Uiso   1.00
C605   C     0.64900   0.39980   0.62680   0.00000  Uiso   1.00
H606   H     0.79640   0.58360   0.92150   0.00000  Uiso   1.00
H607   H     0.59810   0.34860   0.68970   0.00000  Uiso   1.00
H608   H     0.69090   0.47310   0.51340   0.00000  Uiso   1.00
H609   H     0.59620   0.39630   0.73170   0.00000  Uiso   1.00
H610   H     0.61790   0.42310   0.79270   0.00000  Uiso   1.00
H611   H     0.66080   0.45330   0.57240   0.00000  Uiso   1.00
H612   H     0.76730   0.52090   0.81000   0.00000  Uiso   1.00
H613   H     0.79650   0.54920   0.86680   0.00000  Uiso   1.00
H614   H     0.66700   0.45160   0.83300   0.00000  Uiso   1.00
H615   H     0.60030   0.34580   0.56480   0.00000  Uiso   1.00
H616   H     0.72210   0.44750   0.73820   0.00000  Uiso   1.00
H617   H     0.65090   0.34570   0.52390   0.00000  Uiso   1.00
H618   H     0.67790   0.36740   0.46280   0.00000  Uiso   1.00
H619   H     0.70300   0.41700   0.67950   0.00000  Uiso   1.00
H620   H     0.73330   0.48030   0.94320   0.00000  Uiso   1.00
H621   H     0.70410   0.45190   0.88640   0.00000  Uiso   1.00
H622   H     0.53590   0.38540   0.62840   0.00000  Uiso   1.00
H623   H     0.64130   0.28680   0.62650   0.00000  Uiso   1.00
H624   H     0.66920   0.42120   0.62650   0.00000  Uiso   1.00
C625   C     0.17190   0.06310   0.72950   0.00000  Uiso   1.00
C626   C     0.29700   0.93470   0.55380   0.00000  Uiso   1.00
C627   C     0.14770   0.09590   0.79980   0.00000  Uiso   1.00
C628   C     0.13500   0.11250   0.83720   0.00000  Uiso   1.00
C629   C     0.10880   0.14060   0.83740   0.00000  Uiso   1.00
C630   C     0.18170   0.05440   0.98500   0.00000  Uiso   1.00
C631   C     0.12420   0.09370   0.76700   0.00000  Uiso   1.00
C632   C     0.13640   0.07790   0.73210   0.00000  Uiso   1.00
C633   C     0.16490   0.06620   0.95070   0.00000  Uiso   1.00
C634   C     0.25930   0.98770   0.66100   0.00000  Uiso   1.00
C635   C     0.23260   0.01460   0.65630   0.00000  Uiso   1.00
C636   C     0.27580   0.97140   0.62850   0.00000  Uiso   1.00
N637   N     0.21650   0.03050   0.69060   0.00000  Uiso   1.00
C638   C     0.18620   0.07800   0.01680   0.00000  Uiso   1.00
C639   C     0.18480   0.04690   0.69240   0.00000  Uiso   1.00
C640   C     0.15340   0.10230   0.94660   0.00000  Uiso   1.00
C641   C     0.13740   0.11530   0.90890   0.00000  Uiso   1.00
C642   C     0.11060   0.14280   0.90820   0.00000  Uiso   1.00
C643   C     0.19500   0.06440   0.76240   0.00000  Uiso   1.00
C644   C     0.15850   0.12610   0.97830   0.00000  Uiso   1.00
C645   C     0.17440   0.11390   0.01320   0.00000  Uiso   1.00
C646   C     0.18350   0.08130   0.79660   0.00000  Uiso   1.00
C647   C     0.24040   0.01030   0.58580   0.00000  Uiso   1.00
C648   C     0.26590   0.98230   0.59050   0.00000  Uiso   1.00
C649   C     0.22350   0.02630   0.61830   0.00000  Uiso   1.00
N650   N     0.28230   0.96660   0.55620   0.00000  Uiso   1.00
C651   C     0.08040   0.22060   0.87280   0.00000  Uiso   1.00
C652   C     0.03080   0.17420   0.87200   0.00000  Uiso   1.00
C653   C     0.01890   0.13860   0.87170   0.00000  Uiso   1.00
C654   C     0.11720   0.23060   0.87330   0.00000  Uiso   1.00
C655   C     0.06830   0.18440   0.87250   0.00000  Uiso   1.00
C656   C     0.09650   0.15540   0.87270   0.00000  Uiso   1.00
C657   C     0.14900   0.10020   0.87320   0.00000  Uiso   1.00
H658   H     0.29640   0.91640   0.57850   0.00000  Uiso   1.00
H659   H     0.09810   0.15140   0.81030   0.00000  Uiso   1.00
H660   H     0.19090   0.02690   0.98660   0.00000  Uiso   1.00
H661   H     0.09620   0.10370   0.76830   0.00000  Uiso   1.00
H662   H     0.11790   0.07690   0.70730   0.00000  Uiso   1.00
H663   H     0.16080   0.04670   0.92760   0.00000  Uiso   1.00
H664   H     0.26730   0.97910   0.69000   0.00000  Uiso   1.00
H665   H     0.29650   0.95080   0.63320   0.00000  Uiso   1.00
H666   H     0.16700   0.04840   0.66700   0.00000  Uiso   1.00
H667   H     0.10030   0.15420   0.93520   0.00000  Uiso   1.00
H668   H     0.22210   0.05250   0.76180   0.00000  Uiso   1.00
H669   H     0.15090   0.15430   0.97610   0.00000  Uiso   1.00
H670   H     0.17790   0.13260   0.03720   0.00000  Uiso   1.00
H671   H     0.20300   0.08300   0.82050   0.00000  Uiso   1.00
H672   H     0.23330   0.01970   0.55680   0.00000  Uiso   1.00
H673   H     0.20410   0.04810   0.61360   0.00000  Uiso   1.00
H674   H     0.03590   0.11460   0.87160   0.00000  Uiso   1.00
H675   H     0.14130   0.21320   0.87350   0.00000  Uiso   1.00
H676   H     0.16920   0.07880   0.87350   0.00000  Uiso   1.00
C677   C     0.67190   0.56310   0.22950   0.00000  Uiso   1.00
C678   C     0.79700   0.43470   0.05380   0.00000  Uiso   1.00
C679   C     0.64770   0.59590   0.29980   0.00000  Uiso   1.00
C680   C     0.63500   0.61250   0.33720   0.00000  Uiso   1.00
C681   C     0.60880   0.64060   0.33740   0.00000  Uiso   1.00
C682   C     0.68170   0.55440   0.48500   0.00000  Uiso   1.00
C683   C     0.62420   0.59370   0.26700   0.00000  Uiso   1.00
C684   C     0.63640   0.57790   0.23210   0.00000  Uiso   1.00
C685   C     0.66490   0.56620   0.45070   0.00000  Uiso   1.00
C686   C     0.75930   0.48770   0.16100   0.00000  Uiso   1.00
C687   C     0.73260   0.51460   0.15630   0.00000  Uiso   1.00
C688   C     0.77580   0.47140   0.12850   0.00000  Uiso   1.00
N689   N     0.71650   0.53050   0.19060   0.00000  Uiso   1.00
C690   C     0.68620   0.57800   0.51680   0.00000  Uiso   1.00
C691   C     0.68480   0.54690   0.19240   0.00000  Uiso   1.00
C692   C     0.65340   0.60230   0.44660   0.00000  Uiso   1.00
C693   C     0.63740   0.61530   0.40890   0.00000  Uiso   1.00
C694   C     0.61060   0.64280   0.40820   0.00000  Uiso   1.00
C695   C     0.69500   0.56440   0.26240   0.00000  Uiso   1.00
C696   C     0.65850   0.62610   0.47830   0.00000  Uiso   1.00
C697   C     0.67440   0.61390   0.51320   0.00000  Uiso   1.00
C698   C     0.68350   0.58130   0.29660   0.00000  Uiso   1.00
C699   C     0.74040   0.51030   0.08580   0.00000  Uiso   1.00
C700   C     0.76590   0.48230   0.09050   0.00000  Uiso   1.00
C701   C     0.72350   0.52630   0.11830   0.00000  Uiso   1.00
N702   N     0.78230   0.46660   0.05620   0.00000  Uiso   1.00
C703   C     0.58040   0.72060   0.37280   0.00000  Uiso   1.00
C704   C     0.53080   0.67420   0.37200   0.00000  Uiso   1.00
C705   C     0.51890   0.63860   0.37170   0.00000  Uiso   1.00
C706   C     0.61720   0.73060   0.37330   0.00000  Uiso   1.00
C707   C     0.56830   0.68440   0.37250   0.00000  Uiso   1.00
C708   C     0.59650   0.65540   0.37270   0.00000  Uiso   1.00
C709   C     0.64900   0.60020   0.37320   0.00000  Uiso   1.00
H710   H     0.79640   0.41640   0.07850   0.00000  Uiso   1.00
H711   H     0.59810   0.65140   0.31030   0.00000  Uiso   1.00
H712   H     0.69090   0.52690   0.48660   0.00000  Uiso   1.00
H713   H     0.59620   0.60370   0.26830   0.00000  Uiso   1.00
H714   H     0.61790   0.57690   0.20730   0.00000  Uiso   1.00
H715   H     0.66080   0.54670   0.42760   0.00000  Uiso   1.00
H716   H     0.76730   0.47910   0.19000   0.00000  Uiso   1.00
H717   H     0.79650   0.45080   0.13320   0.00000  Uiso   1.00
H718   H     0.66700   0.54840   0.16700   0.00000  Uiso   1.00
H719   H     0.60030   0.65420   0.43520   0.00000  Uiso   1.00
H720   H     0.72210   0.55250   0.26180   0.00000  Uiso   1.00
H721   H     0.65090   0.65430   0.47610   0.00000  Uiso   1.00
H722   H     0.67790   0.63260   0.53720   0.00000  Uiso   1.00
H723   H     0.70300   0.58300   0.32050   0.00000  Uiso   1.00
H724   H     0.73330   0.51970   0.05680   0.00000  Uiso   1.00
H725   H     0.70410   0.54810   0.11360   0.00000  Uiso   1.00
H726   H     0.53590   0.61460   0.37160   0.00000  Uiso   1.00
H727   H     0.64130   0.71320   0.37350   0.00000  Uiso   1.00
H728   H     0.66920   0.57880   0.37350   0.00000  Uiso   1.00
C729   C     0.82810   0.43690   0.72950   0.00000  Uiso   1.00
C730   C     0.70300   0.56530   0.55380   0.00000  Uiso   1.00
C731   C     0.85230   0.40410   0.79980   0.00000  Uiso   1.00
C732   C     0.86500   0.38750   0.83720   0.00000  Uiso   1.00
C733   C     0.89120   0.35940   0.83740   0.00000  Uiso   1.00
C734   C     0.81830   0.44560   0.98500   0.00000  Uiso   1.00
C735   C     0.87580   0.40630   0.76700   0.00000  Uiso   1.00
C736   C     0.86360   0.42210   0.73210   0.00000  Uiso   1.00
C737   C     0.83510   0.43380   0.95070   0.00000  Uiso   1.00
C738   C     0.74070   0.51230   0.66100   0.00000  Uiso   1.00
C739   C     0.76740   0.48540   0.65630   0.00000  Uiso   1.00
C740   C     0.72420   0.52860   0.62850   0.00000  Uiso   1.00
N741   N     0.78350   0.46950   0.69060   0.00000  Uiso   1.00
C742   C     0.81380   0.42200   0.01680   0.00000  Uiso   1.00
C743   C     0.81520   0.45310   0.69240   0.00000  Uiso   1.00
C744   C     0.84660   0.39770   0.94660   0.00000  Uiso   1.00
C745   C     0.86260   0.38470   0.90890   0.00000  Uiso   1.00
C746   C     0.88940   0.35720   0.90820   0.00000  Uiso   1.00
C747   C     0.80500   0.43560   0.76240   0.00000  Uiso   1.00
C748   C     0.84150   0.37390   0.97830   0.00000  Uiso   1.00
C749   C     0.82560   0.38610   0.01320   0.00000  Uiso   1.00
C750   C     0.81650   0.41870   0.79660   0.00000  Uiso   1.00
C751   C     0.75960   0.48970   0.58580   0.00000  Uiso   1.00
C752   C     0.73410   0.51770   0.59050   0.00000  Uiso   1.00
C753   C     0.77650   0.47370   0.61830   0.00000  Uiso   1.00
N754   N     0.71770   0.53340   0.55620   0.00000  Uiso   1.00
C755   C     0.91960   0.27940   0.87280   0.00000  Uiso   1.00
C756   C     0.96920   0.32580   0.87200   0.00000  Uiso   1.00
C757   C     0.98110   0.36140   0.87170   0.00000  Uiso   1.00
C758   C     0.88280   0.26940   0.87330   0.00000  Uiso   1.00
C759   C     0.93170   0.31560   0.87250   0.00000  Uiso   1.00
C760   C     0.90350   0.34460   0.87270   0.00000  Uiso   1.00
C761   C     0.85100   0.39980   0.87320   0.00000  Uiso   1.00
H762   H     0.70360   0.58360   0.57850   0.00000  Uiso   1.00
H763   H     0.90190   0.34860   0.81030   0.00000  Uiso   1.00
H764   H     0.80910   0.47310   0.98660   0.00000  Uiso   1.00
H765   H     0.90380   0.39630   0.76830   0.00000  Uiso   1.00
H766   H     0.88210   0.42310   0.70730   0.00000  Uiso   1.00
H767   H     0.83920   0.45330   0.92760   0.00000  Uiso   1.00
H768   H     0.73270   0.52090   0.69000   0.00000  Uiso   1.00
H769   H     0.70350   0.54920   0.63320   0.00000  Uiso   1.00
H770   H     0.83300   0.45160   0.66700   0.00000  Uiso   1.00
H771   H     0.89970   0.34580   0.93520   0.00000  Uiso   1.00
H772   H     0.77790   0.44750   0.76180   0.00000  Uiso   1.00
H773   H     0.84910   0.34570   0.97610   0.00000  Uiso   1.00
H774   H     0.82210   0.36740   0.03720   0.00000  Uiso   1.00
H775   H     0.79700   0.41700   0.82050   0.00000  Uiso   1.00
H776   H     0.76670   0.48030   0.55680   0.00000  Uiso   1.00
H777   H     0.79590   0.45190   0.61360   0.00000  Uiso   1.00
H778   H     0.96410   0.38540   0.87160   0.00000  Uiso   1.00
H779   H     0.85870   0.28680   0.87350   0.00000  Uiso   1.00
H780   H     0.83080   0.42120   0.87350   0.00000  Uiso   1.00
C781   C     0.32810   0.93690   0.22950   0.00000  Uiso   1.00
C782   C     0.20300   0.06530   0.05380   0.00000  Uiso   1.00
C783   C     0.35230   0.90410   0.29980   0.00000  Uiso   1.00
C784   C     0.36500   0.88750   0.33720   0.00000  Uiso   1.00
C785   C     0.39120   0.85940   0.33740   0.00000  Uiso   1.00
C786   C     0.31830   0.94560   0.48500   0.00000  Uiso   1.00
C787   C     0.37580   0.90630   0.26700   0.00000  Uiso   1.00
C788   C     0.36360   0.92210   0.23210   0.00000  Uiso   1.00
C789   C     0.33510   0.93380   0.45070   0.00000  Uiso   1.00
C790   C     0.24070   0.01230   0.16100   0.00000  Uiso   1.00
C791   C     0.26740   0.98540   0.15630   0.00000  Uiso   1.00
C792   C     0.22420   0.02860   0.12850   0.00000  Uiso   1.00
N793   N     0.28350   0.96950   0.19060   0.00000  Uiso   1.00
C794   C     0.31380   0.92200   0.51680   0.00000  Uiso   1.00
C795   C     0.31520   0.95310   0.19240   0.00000  Uiso   1.00
C796   C     0.34660   0.89770   0.44660   0.00000  Uiso   1.00
C797   C     0.36260   0.88470   0.40890   0.00000  Uiso   1.00
C798   C     0.38940   0.85720   0.40820   0.00000  Uiso   1.00
C799   C     0.30500   0.93560   0.26240   0.00000  Uiso   1.00
C800   C     0.34150   0.87390   0.47830   0.00000  Uiso   1.00
C801   C     0.32560   0.88610   0.51320   0.00000  Uiso   1.00
C802   C     0.31650   0.91870   0.29660   0.00000  Uiso   1.00
C803   C     0.25960   0.98970   0.08580   0.00000  Uiso   1.00
C804   C     0.23410   0.01770   0.09050   0.00000  Uiso   1.00
C805   C     0.27650   0.97370   0.11830   0.00000  Uiso   1.00
N806   N     0.21770   0.03340   0.05620   0.00000  Uiso   1.00
C807   C     0.41960   0.77940   0.37280   0.00000  Uiso   1.00
C808   C     0.46920   0.82580   0.37200   0.00000  Uiso   1.00
C809   C     0.48110   0.86140   0.37170   0.00000  Uiso   1.00
C810   C     0.38280   0.76940   0.37330   0.00000  Uiso   1.00
C811   C     0.43170   0.81560   0.37250   0.00000  Uiso   1.00
C812   C     0.40350   0.84460   0.37270   0.00000  Uiso   1.00
C813   C     0.35100   0.89980   0.37320   0.00000  Uiso   1.00
H814   H     0.20360   0.08360   0.07850   0.00000  Uiso   1.00
H815   H     0.40190   0.84860   0.31030   0.00000  Uiso   1.00
H816   H     0.30910   0.97310   0.48660   0.00000  Uiso   1.00
H817   H     0.40380   0.89630   0.26830   0.00000  Uiso   1.00
H818   H     0.38210   0.92310   0.20730   0.00000  Uiso   1.00
H819   H     0.33920   0.95330   0.42760   0.00000  Uiso   1.00
H820   H     0.23270   0.02090   0.19000   0.00000  Uiso   1.00
H821   H     0.20350   0.04920   0.13320   0.00000  Uiso   1.00
H822   H     0.33300   0.95160   0.16700   0.00000  Uiso   1.00
H823   H     0.39970   0.84580   0.43520   0.00000  Uiso   1.00
H824   H     0.27790   0.94750   0.26180   0.00000  Uiso   1.00
H825   H     0.34910   0.84570   0.47610   0.00000  Uiso   1.00
H826   H     0.32210   0.86740   0.53720   0.00000  Uiso   1.00
H827   H     0.29700   0.91700   0.32050   0.00000  Uiso   1.00
H828   H     0.26670   0.98030   0.05680   0.00000  Uiso   1.00
H829   H     0.29590   0.95190   0.11360   0.00000  Uiso   1.00
H830   H     0.46410   0.88540   0.37160   0.00000  Uiso   1.00
H831   H     0.35870   0.78680   0.37350   0.00000  Uiso   1.00
H832   H     0.33080   0.92120   0.37350   0.00000  Uiso   1.00
N833   N     0.05810   0.25000   0.87250   0.00000  Uiso   1.00
N834   N     0.55810   0.75000   0.37250   0.00000  Uiso   1.00
N835   N     0.94190   0.25000   0.87250   0.00000  Uiso   1.00
N836   N     0.44190   0.75000   0.37250   0.00000  Uiso   1.00
N837   N     0.94190   0.75000   0.12750   0.00000  Uiso   1.00
N838   N     0.44190   0.25000   0.62750   0.00000  Uiso   1.00
N839   N     0.05810   0.75000   0.12750   0.00000  Uiso   1.00
N840   N     0.55810   0.25000   0.62750   0.00000  Uiso   1.00
N841   N     0.00000   0.30160   0.87220   0.00000  Uiso   1.00
N842   N     0.50000   0.80160   0.37220   0.00000  Uiso   1.00
N843   N     0.00000   0.19840   0.87220   0.00000  Uiso   1.00
N844   N     0.50000   0.69840   0.37220   0.00000  Uiso   1.00
N845   N     0.00000   0.80160   0.12780   0.00000  Uiso   1.00
N846   N     0.50000   0.30160   0.62780   0.00000  Uiso   1.00
N847   N     0.00000   0.69840   0.12780   0.00000  Uiso   1.00
N848   N     0.50000   0.19840   0.62780   0.00000  Uiso   1.00
loop_
_geom_bond_atom_site_label_1
_geom_bond_atom_site_label_2
_geom_bond_distance
_geom_bond_site_symmetry_2
_ccdc_geom_bond_type
C1     C8      1.498   .     D
C1     C15     1.592   .     S
C1     C19     1.534   .     S
C2     N26     1.284   .     D
C2     H34     1.136   .     S
C2     C170    1.604   .     S
C3     C4      1.605   .     S
C3     C7      1.542   .     D
C3     C22     1.508   .     S
C4     C5      1.441   .     D
C4     C33     1.524   .     S
C5     C32     1.507   .     S
C5     H35     1.167   .     S
C6     C9      1.508   .     S
C6     H36     1.051   .     S
C6     C14     1.473   1_556 D
C7     C8      1.506   .     S
C7     H37     1.160   .     S
C8     H38     1.182   .     S
C9     C16     1.378   .     D
C9     H39     1.125   .     S
C10    C11     1.436   .     D
C10    C12     1.500   .     S
C10    H40     1.174   .     S
C11    N13     1.544   .     S
C11    C25     1.529   .     S
C12    C24     1.529   .     D
C12    H41     1.113   .     S
N13    C15     1.381   .     D
C14    C21     1.374   .     S
C14    C158    1.604   .     S
C14    C6      1.473   1_554 D
C15    H42     1.184   .     S
C16    C17     1.617   .     S
C16    C20     1.477   .     S
C17    C18     1.443   .     S
C17    C33     1.516   .     D
C18    C32     1.512   .     D
C18    H43     1.165   .     S
C19    C22     1.490   .     D
C19    H44     1.149   .     S
C20    H45     1.056   .     S
C20    C21     1.516   1_556 D
C21    H46     1.131   .     S
C21    C20     1.516   1_554 D
C22    H47     1.182   .     S
C23    C24     1.430   .     S
C23    C25     1.503   .     D
C23    H48     1.173   .     S
C24    N26     1.546   .     S
C25    H49     1.106   .     S
C27    C30     1.492   .     S
C27    C31     1.381   .     S
C27    N833    1.371   .     D
C28    C29     1.358   .     S
C28    C31     1.521   .     D
C28    N841    1.490   .     S
C29    H50     1.089   .     S
C29    C757    1.488   1_455 D
C30    H51     1.135   .     S
C30    C654    1.389   .     D
C31    C32     1.520   .     S
C33    H52     1.104   .     S
C53    C60     1.498   .     S
C53    C67     1.592   .     S
C53    C71     1.534   .     D
C54    N78     1.284   .     D
C54    H86     1.136   .     S
C54    C118    1.604   .     S
C55    C56     1.605   .     S
C55    C59     1.542   .     S
C55    C74     1.508   .     D
C56    C57     1.441   .     D
C56    C85     1.524   .     S
C57    C84     1.507   .     S
C57    H87     1.167   .     S
C58    C61     1.508   .     S
C58    C66     1.473   .     D
C58    H88     1.051   .     S
C59    C60     1.506   .     D
C59    H89     1.160   .     S
C60    H90     1.182   .     S
C61    C68     1.378   .     D
C61    H91     1.125   .     S
C62    C64     1.500   .     S
C62    H92     1.174   .     S
C62    C63     1.436   1_545 D
C63    N65     1.544   .     S
C63    C77     1.529   .     S
C63    C62     1.436   1_565 D
C64    C76     1.529   .     D
C64    H93     1.113   .     S
N65    C67     1.381   .     D
C66    C73     1.374   .     S
C66    C106    1.604   .     S
C67    H94     1.184   .     S
C68    C69     1.617   .     S
C68    C72     1.477   .     S
C69    C70     1.443   .     S
C69    C85     1.516   .     D
C70    C84     1.512   .     D
C70    H95     1.165   .     S
C71    C74     1.490   .     S
C71    H96     1.149   .     S
C72    C73     1.516   .     D
C72    H97     1.056   .     S
C73    H98     1.131   .     S
C74    H99     1.182   .     S
C75    C77     1.503   .     D
C75    H100    1.173   .     S
C75    C76     1.430   1_565 S
C76    N78     1.546   .     S
C76    C75     1.430   1_545 S
C77    H101    1.106   .     S
C79    C82     1.492   .     S
C79    C83     1.381   .     S
C79    N834    1.371   .     D
C80    C81     1.358   .     S
C80    C83     1.521   .     D
C80    N842    1.490   .     S
C81    H102    1.089   .     S
C81    C809    1.488   .     D
C82    H103    1.135   .     S
C82    C706    1.389   .     D
C83    C84     1.520   .     S
C85    H104    1.104   .     S
C105   C112    1.498   .     D
C105   C119    1.592   .     S
C105   C123    1.534   .     S
C106   N130    1.284   .     D
C106   H138    1.136   .     S
C107   C108    1.605   .     S
C107   C111    1.542   .     D
C107   C126    1.508   .     S
C108   C109    1.441   .     D
C108   C137    1.524   .     S
C109   C136    1.507   .     S
C109   H139    1.167   .     S
C110   C113    1.508   .     S
C110   H140    1.051   .     S
C110   C118    1.473   1_556 D
C111   C112    1.506   .     S
C111   H141    1.160   .     S
C112   H142    1.182   .     S
C113   C120    1.378   .     D
C113   H143    1.125   .     S
C114   C116    1.500   .     S
C114   H144    1.174   .     S
C114   C115    1.436   1_565 D
C115   N117    1.544   .     S
C115   C129    1.529   .     S
C115   C114    1.436   1_545 D
C116   C128    1.529   .     D
C116   H145    1.113   .     S
N117   C119    1.381   .     D
C118   C125    1.374   .     S
C118   C110    1.473   1_554 D
C119   H146    1.184   .     S
C120   C121    1.617   .     S
C120   C124    1.477   .     S
C121   C122    1.443   .     S
C121   C137    1.516   .     D
C122   C136    1.512   .     D
C122   H147    1.165   .     S
C123   C126    1.490   .     D
C123   H148    1.149   .     S
C124   H149    1.056   .     S
C124   C125    1.516   1_556 D
C125   H150    1.131   .     S
C125   C124    1.516   1_554 D
C126   H151    1.182   .     S
C127   C129    1.503   .     D
C127   H152    1.173   .     S
C127   C128    1.430   1_545 S
C128   N130    1.546   .     S
C128   C127    1.430   1_565 S
C129   H153    1.106   .     S
C131   C134    1.492   .     S
C131   C135    1.381   .     S
C131   N835    1.371   .     D
C132   C133    1.358   .     S
C132   C135    1.521   .     D
C132   N843    1.490   1_655 S
C133   H154    1.089   .     S
C133   C653    1.488   1_655 D
C134   H155    1.135   .     S
C134   C758    1.389   .     D
C135   C136    1.520   .     S
C137   H156    1.104   .     S
C157   C164    1.498   .     S
C157   C171    1.592   .     S
C157   C175    1.534   .     D
C158   N182    1.284   .     D
C158   H190    1.136   .     S
C159   C160    1.605   .     S
C159   C163    1.542   .     S
C159   C178    1.508   .     D
C160   C161    1.441   .     D
C160   C189    1.524   .     S
C161   C188    1.507   .     S
C161   H191    1.167   .     S
C162   C165    1.508   .     S
C162   C170    1.473   .     D
C162   H192    1.051   .     S
C163   C164    1.506   .     D
C163   H193    1.160   .     S
C164   H194    1.182   .     S
C165   C172    1.378   .     D
C165   H195    1.125   .     S
C166   C167    1.436   .     S
C166   C168    1.500   .     D
C166   H196    1.174   .     S
C167   N169    1.544   .     S
C167   C181    1.529   .     D
C168   C180    1.529   .     S
C168   H197    1.113   .     S
N169   C171    1.381   .     D
C170   C177    1.374   .     S
C171   H198    1.184   .     S
C172   C173    1.617   .     S
C172   C176    1.477   .     S
C173   C174    1.443   .     S
C173   C189    1.516   .     D
C174   C188    1.512   .     D
C174   H199    1.165   .     S
C175   C178    1.490   .     S
C175   H200    1.149   .     S
C176   C177    1.516   .     D
C176   H201    1.056   .     S
C177   H202    1.131   .     S
C178   H203    1.182   .     S
C179   C180    1.430   .     D
C179   C181    1.503   .     S
C179   H204    1.173   .     S
C180   N182    1.546   .     S
C181   H205    1.106   .     S
C183   C186    1.492   .     S
C183   C187    1.381   .     S
C183   N836    1.371   .     D
C184   C185    1.358   .     S
C184   C187    1.521   .     D
C184   N844    1.490   .     S
C185   H206    1.089   .     S
C185   C705    1.488   .     D
C186   H207    1.135   .     S
C186   C810    1.389   .     D
C187   C188    1.520   .     S
C189   H208    1.104   .     S
C209   C216    1.498   .     D
C209   C223    1.592   .     S
C209   C227    1.534   .     S
C210   N234    1.284   .     D
C210   H242    1.136   .     S
C210   C378    1.604   .     S
C211   C212    1.605   .     S
C211   C215    1.542   .     D
C211   C230    1.508   .     S
C212   C213    1.441   .     D
C212   C241    1.524   .     S
C213   C240    1.507   .     S
C213   H243    1.167   .     S
C214   C217    1.508   .     S
C214   H244    1.051   .     S
C214   C222    1.473   1_554 D
C215   C216    1.506   .     S
C215   H245    1.160   .     S
C216   H246    1.182   .     S
C217   C224    1.378   .     D
C217   H247    1.125   .     S
C218   C220    1.500   .     S
C218   H248    1.174   .     S
C218   C219    1.436   1_545 D
C219   N221    1.544   .     S
C219   C233    1.529   .     S
C219   C218    1.436   1_565 D
C220   C232    1.529   .     D
C220   H249    1.113   .     S
N221   C223    1.381   .     D
C222   C229    1.374   .     S
C222   C366    1.604   .     S
C222   C214    1.473   1_556 D
C223   H250    1.184   .     S
C224   C225    1.617   .     S
C224   C228    1.477   .     S
C225   C226    1.443   .     S
C225   C241    1.516   .     D
C226   C240    1.512   .     D
C226   H251    1.165   .     S
C227   C230    1.490   .     D
C227   H252    1.149   .     S
C228   H253    1.056   .     S
C228   C229    1.516   1_554 D
C229   H254    1.131   .     S
C229   C228    1.516   1_556 D
C230   H255    1.182   .     S
C231   C233    1.503   .     D
C231   H256    1.173   .     S
C231   C232    1.430   1_565 S
C232   N234    1.546   .     S
C232   C231    1.430   1_545 S
C233   H257    1.106   .     S
C235   C238    1.492   .     S
C235   C239    1.381   .     S
C235   N837    1.371   .     D
C236   C237    1.358   .     S
C236   C239    1.521   .     D
C236   N845    1.490   1_655 S
C237   H258    1.089   .     S
C237   C549    1.488   1_655 D
C238   H259    1.135   .     S
C238   C446    1.389   .     D
C239   C240    1.520   .     S
C241   H260    1.104   .     S
C261   C268    1.498   .     S
C261   C275    1.592   .     S
C261   C279    1.534   .     D
C262   N286    1.284   .     D
C262   H294    1.136   .     S
C262   C326    1.604   .     S
C263   C264    1.605   .     S
C263   C267    1.542   .     S
C263   C282    1.508   .     D
C264   C265    1.441   .     D
C264   C293    1.524   .     S
C265   C292    1.507   .     S
C265   H295    1.167   .     S
C266   C269    1.508   .     S
C266   C274    1.473   .     D
C266   H296    1.051   .     S
C267   C268    1.506   .     D
C267   H297    1.160   .     S
C268   H298    1.182   .     S
C269   C276    1.378   .     D
C269   H299    1.125   .     S
C270   C271    1.436   .     S
C270   C272    1.500   .     D
C270   H300    1.174   .     S
C271   N273    1.544   .     S
C271   C285    1.529   .     D
C272   C284    1.529   .     S
C272   H301    1.113   .     S
N273   C275    1.381   .     D
C274   C281    1.374   .     S
C274   C314    1.604   .     S
C275   H302    1.184   .     S
C276   C277    1.617   .     S
C276   C280    1.477   .     S
C277   C278    1.443   .     S
C277   C293    1.516   .     D
C278   C292    1.512   .     D
C278   H303    1.165   .     S
C279   C282    1.490   .     S
C279   H304    1.149   .     S
C280   C281    1.516   .     D
C280   H305    1.056   .     S
C281   H306    1.131   .     S
C282   H307    1.182   .     S
C283   C284    1.430   .     D
C283   C285    1.503   .     S
C283   H308    1.173   .     S
C284   N286    1.546   .     S
C285   H309    1.106   .     S
C287   C290    1.492   .     S
C287   C291    1.381   .     S
C287   N838    1.371   .     D
C288   C289    1.358   .     S
C288   C291    1.521   .     D
C288   N846    1.490   .     S
C289   H310    1.089   .     S
C289   C601    1.488   .     D
C290   H311    1.135   .     S
C290   C498    1.389   .     D
C291   C292    1.520   .     S
C293   H312    1.104   .     S
C313   C320    1.498   .     D
C313   C327    1.592   .     S
C313   C331    1.534   .     S
C314   N338    1.284   .     D
C314   H346    1.136   .     S
C315   C316    1.605   .     S
C315   C319    1.542   .     D
C315   C334    1.508   .     S
C316   C317    1.441   .     D
C316   C345    1.524   .     S
C317   C344    1.507   .     S
C317   H347    1.167   .     S
C318   C321    1.508   .     S
C318   H348    1.051   .     S
C318   C326    1.473   1_554 D
C319   C320    1.506   .     S
C319   H349    1.160   .     S
C320   H350    1.182   .     S
C321   C328    1.378   .     D
C321   H351    1.125   .     S
C322   C323    1.436   .     D
C322   C324    1.500   .     S
C322   H352    1.174   .     S
C323   N325    1.544   .     S
C323   C337    1.529   .     S
C324   C336    1.529   .     D
C324   H353    1.113   .     S
N325   C327    1.381   .     D
C326   C333    1.374   .     S
C326   C318    1.473   1_556 D
C327   H354    1.184   .     S
C328   C329    1.617   .     S
C328   C332    1.477   .     S
C329   C330    1.443   .     S
C329   C345    1.516   .     D
C330   C344    1.512   .     D
C330   H355    1.165   .     S
C331   C334    1.490   .     D
C331   H356    1.149   .     S
C332   H357    1.056   .     S
C332   C333    1.516   1_554 D
C333   H358    1.131   .     S
C333   C332    1.516   1_556 D
C334   H359    1.182   .     S
C335   C336    1.430   .     S
C335   C337    1.503   .     D
C335   H360    1.173   .     S
C336   N338    1.546   .     S
C337   H361    1.106   .     S
C339   C342    1.492   .     S
C339   C343    1.381   .     S
C339   N839    1.371   .     D
C340   C341    1.358   .     S
C340   C343    1.521   .     D
C340   N847    1.490   .     S
C341   H362    1.089   .     S
C341   C445    1.488   1_455 D
C342   H363    1.135   .     S
C342   C550    1.389   .     D
C343   C344    1.520   .     S
C345   H364    1.104   .     S
C365   C372    1.498   .     S
C365   C379    1.592   .     S
C365   C383    1.534   .     D
C366   N390    1.284   .     D
C366   H398    1.136   .     S
C367   C368    1.605   .     S
C367   C371    1.542   .     S
C367   C386    1.508   .     D
C368   C369    1.441   .     D
C368   C397    1.524   .     S
C369   C396    1.507   .     S
C369   H399    1.167   .     S
C370   C373    1.508   .     S
C370   C378    1.473   .     D
C370   H400    1.051   .     S
C371   C372    1.506   .     D
C371   H401    1.160   .     S
C372   H402    1.182   .     S
C373   C380    1.378   .     D
C373   H403    1.125   .     S
C374   C376    1.500   .     S
C374   H404    1.174   .     S
C374   C375    1.436   1_565 D
C375   N377    1.544   .     S
C375   C389    1.529   .     S
C375   C374    1.436   1_545 D
C376   C388    1.529   .     D
C376   H405    1.113   .     S
N377   C379    1.381   .     D
C378   C385    1.374   .     S
C379   H406    1.184   .     S
C380   C381    1.617   .     S
C380   C384    1.477   .     S
C381   C382    1.443   .     S
C381   C397    1.516   .     D
C382   C396    1.512   .     D
C382   H407    1.165   .     S
C383   C386    1.490   .     S
C383   H408    1.149   .     S
C384   C385    1.516   .     D
C384   H409    1.056   .     S
C385   H410    1.131   .     S
C386   H411    1.182   .     S
C387   C389    1.503   .     D
C387   H412    1.173   .     S
C387   C388    1.430   1_545 S
C388   N390    1.546   .     S
C388   C387    1.430   1_565 S
C389   H413    1.106   .     S
C391   C394    1.492   .     S
C391   C395    1.381   .     S
C391   N840    1.371   .     D
C392   C393    1.358   .     S
C392   C395    1.521   .     D
C392   N848    1.490   .     S
C393   H414    1.089   .     S
C393   C497    1.488   .     D
C394   H415    1.135   .     S
C394   C602    1.389   .     D
C395   C396    1.520   .     S
C397   H416    1.104   .     S
C417   C424    1.498   .     D
C417   C431    1.592   .     S
C417   C435    1.534   .     S
C418   N442    1.284   .     D
C418   H450    1.136   .     S
C418   C586    1.604   .     S
C419   C420    1.605   .     S
C419   C423    1.542   .     D
C419   C438    1.508   .     S
C420   C421    1.441   .     D
C420   C449    1.524   .     S
C421   C448    1.507   .     S
C421   H451    1.167   .     S
C422   C425    1.508   .     S
C422   H452    1.051   .     S
C422   C430    1.473   1_554 D
C423   C424    1.506   .     S
C423   H453    1.160   .     S
C424   H454    1.182   .     S
C425   C432    1.378   .     D
C425   H455    1.125   .     S
C426   C427    1.436   .     D
C426   C428    1.500   .     S
C426   H456    1.174   .     S
C427   N429    1.544   .     S
C427   C441    1.529   .     S
C428   C440    1.529   .     D
C428   H457    1.113   .     S
N429   C431    1.381   .     D
C430   C437    1.374   .     S
C430   C574    1.604   .     S
C430   C422    1.473   1_556 D
C431   H458    1.184   .     S
C432   C433    1.617   .     S
C432   C436    1.477   .     S
C433   C434    1.443   .     S
C433   C449    1.516   .     D
C434   C448    1.512   .     D
C434   H459    1.165   .     S
C435   C438    1.490   .     D
C435   H460    1.149   .     S
C436   H461    1.056   .     S
C436   C437    1.516   1_554 D
C437   H462    1.131   .     S
C437   C436    1.516   1_556 D
C438   H463    1.182   .     S
C439   C440    1.430   .     S
C439   C441    1.503   .     D
C439   H464    1.173   .     S
C440   N442    1.546   .     S
C441   H465    1.106   .     S
C443   C446    1.492   .     S
C443   C447    1.381   .     D
C443   N837    1.371   .     S
C444   C445    1.358   .     S
C444   C447    1.521   .     S
C444   N847    1.490   1_655 D
C445   H466    1.089   .     S
C445   C341    1.488   1_655 D
C446   H467    1.135   .     S
C447   C448    1.520   .     S
C449   H468    1.104   .     S
C469   C476    1.498   .     D
C469   C483    1.592   .     S
C469   C487    1.534   .     S
C470   N494    1.284   .     D
C470   H502    1.136   .     S
C470   C534    1.604   .     S
C471   C472    1.605   .     S
C471   C475    1.542   .     D
C471   C490    1.508   .     S
C472   C473    1.441   .     D
C472   C501    1.524   .     S
C473   C500    1.507   .     S
C473   H503    1.167   .     S
C474   C477    1.508   .     S
C474   C482    1.473   .     D
C474   H504    1.051   .     S
C475   C476    1.506   .     S
C475   H505    1.160   .     S
C476   H506    1.182   .     S
C477   C484    1.378   .     D
C477   H507    1.125   .     S
C478   C480    1.500   .     D
C478   H508    1.174   .     S
C478   C479    1.436   1_565 S
C479   N481    1.544   .     S
C479   C493    1.529   .     D
C479   C478    1.436   1_545 S
C480   C492    1.529   .     S
C480   H509    1.113   .     S
N481   C483    1.381   .     D
C482   C489    1.374   .     S
C482   C522    1.604   .     S
C483   H510    1.184   .     S
C484   C485    1.617   .     S
C484   C488    1.477   .     S
C485   C486    1.443   .     S
C485   C501    1.516   .     D
C486   C500    1.512   .     D
C486   H511    1.165   .     S
C487   C490    1.490   .     D
C487   H512    1.149   .     S
C488   C489    1.516   .     D
C488   H513    1.056   .     S
C489   H514    1.131   .     S
C490   H515    1.182   .     S
C491   C493    1.503   .     S
C491   H516    1.173   .     S
C491   C492    1.430   1_545 D
C492   N494    1.546   .     S
C492   C491    1.430   1_565 D
C493   H517    1.106   .     S
C495   C498    1.492   .     S
C495   C499    1.381   .     D
C495   N838    1.371   .     S
C496   C497    1.358   .     S
C496   C499    1.521   .     S
C496   N848    1.490   .     D
C497   H518    1.089   .     S
C498   H519    1.135   .     S
C499   C500    1.520   .     S
C501   H520    1.104   .     S
C521   C528    1.498   .     D
C521   C535    1.592   .     S
C521   C539    1.534   .     S
C522   N546    1.284   .     D
C522   H554    1.136   .     S
C523   C524    1.605   .     S
C523   C527    1.542   .     D
C523   C542    1.508   .     S
C524   C525    1.441   .     D
C524   C553    1.524   .     S
C525   C552    1.507   .     S
C525   H555    1.167   .     S
C526   C529    1.508   .     D
C526   H556    1.051   .     S
C526   C534    1.473   1_554 S
C527   C528    1.506   .     S
C527   H557    1.160   .     S
C528   H558    1.182   .     S
C529   C536    1.378   .     S
C529   H559    1.125   .     S
C530   C532    1.500   .     S
C530   H560    1.174   .     S
C530   C531    1.436   1_545 D
C531   N533    1.544   .     S
C531   C545    1.529   .     S
C531   C530    1.436   1_565 D
C532   C544    1.529   .     D
C532   H561    1.113   .     S
N533   C535    1.381   .     D
C534   C541    1.374   .     D
C534   C526    1.473   1_556 S
C535   H562    1.184   .     S
C536   C537    1.617   .     S
C536   C540    1.477   .     D
C537   C538    1.443   .     S
C537   C553    1.516   .     D
C538   C552    1.512   .     D
C538   H563    1.165   .     S
C539   C542    1.490   .     D
C539   H564    1.149   .     S
C540   H565    1.056   .     S
C540   C541    1.516   1_554 S
C541   H566    1.131   .     S
C541   C540    1.516   1_556 S
C542   H567    1.182   .     S
C543   C545    1.503   .     D
C543   H568    1.173   .     S
C543   C544    1.430   1_565 S
C544   N546    1.546   .     S
C544   C543    1.430   1_545 S
C545   H569    1.106   .     S
C547   C550    1.492   .     S
C547   C551    1.381   .     D
C547   N839    1.371   .     S
C548   C549    1.358   .     S
C548   C551    1.521   .     S
C548   N845    1.490   .     D
C549   H570    1.089   .     S
C549   C237    1.488   1_455 D
C550   H571    1.135   .     S
C551   C552    1.520   .     S
C553   H572    1.104   .     S
C573   C580    1.498   .     S
C573   C587    1.592   .     S
C573   C591    1.534   .     D
C574   N598    1.284   .     D
C574   H606    1.136   .     S
C575   C576    1.605   .     S
C575   C579    1.542   .     S
C575   C594    1.508   .     D
C576   C577    1.441   .     D
C576   C605    1.524   .     S
C577   C604    1.507   .     S
C577   H607    1.167   .     S
C578   C581    1.508   .     S
C578   C586    1.473   .     D
C578   H608    1.051   .     S
C579   C580    1.506   .     D
C579   H609    1.160   .     S
C580   H610    1.182   .     S
C581   C588    1.378   .     D
C581   H611    1.125   .     S
C582   C583    1.436   .     S
C582   C584    1.500   .     D
C582   H612    1.174   .     S
C583   N585    1.544   .     S
C583   C597    1.529   .     D
C584   C596    1.529   .     S
C584   H613    1.113   .     S
N585   C587    1.381   .     D
C586   C593    1.374   .     S
C587   H614    1.184   .     S
C588   C589    1.617   .     S
C588   C592    1.477   .     S
C589   C590    1.443   .     S
C589   C605    1.516   .     D
C590   C604    1.512   .     D
C590   H615    1.165   .     S
C591   C594    1.490   .     S
C591   H616    1.149   .     S
C592   C593    1.516   .     D
C592   H617    1.056   .     S
C593   H618    1.131   .     S
C594   H619    1.182   .     S
C595   C596    1.430   .     D
C595   C597    1.503   .     S
C595   H620    1.173   .     S
C596   N598    1.546   .     S
C597   H621    1.106   .     S
C599   C602    1.492   .     S
C599   C603    1.381   .     D
C599   N840    1.371   .     S
C600   C601    1.358   .     S
C600   C603    1.521   .     S
C600   N846    1.490   .     D
C601   H622    1.089   .     S
C602   H623    1.135   .     S
C603   C604    1.520   .     S
C605   H624    1.104   .     S
C625   C632    1.498   .     D
C625   C639    1.592   .     S
C625   C643    1.534   .     S
C626   N650    1.284   .     D
C626   H658    1.136   .     S
C626   C794    1.604   .     S
C627   C628    1.605   .     S
C627   C631    1.542   .     D
C627   C646    1.508   .     S
C628   C629    1.441   .     D
C628   C657    1.524   .     S
C629   C656    1.507   .     S
C629   H659    1.167   .     S
C630   C633    1.508   .     S
C630   H660    1.051   .     S
C630   C638    1.473   1_556 D
C631   C632    1.506   .     S
C631   H661    1.160   .     S
C632   H662    1.182   .     S
C633   C640    1.378   .     D
C633   H663    1.125   .     S
C634   C636    1.500   .     S
C634   H664    1.174   .     S
C634   C635    1.436   1_565 D
C635   N637    1.544   .     S
C635   C649    1.529   .     S
C635   C634    1.436   1_545 D
C636   C648    1.529   .     D
C636   H665    1.113   .     S
N637   C639    1.381   .     D
C638   C645    1.374   .     S
C638   C782    1.604   .     S
C638   C630    1.473   1_554 D
C639   H666    1.184   .     S
C640   C641    1.617   .     S
C640   C644    1.477   .     S
C641   C642    1.443   .     S
C641   C657    1.516   .     D
C642   C656    1.512   .     D
C642   H667    1.165   .     S
C643   C646    1.490   .     D
C643   H668    1.149   .     S
C644   H669    1.056   .     S
C644   C645    1.516   1_556 D
C645   H670    1.131   .     S
C645   C644    1.516   1_554 D
C646   H671    1.182   .     S
C647   C649    1.503   .     D
C647   H672    1.173   .     S
C647   C648    1.430   1_545 S
C648   N650    1.546   .     S
C648   C647    1.430   1_565 S
C649   H673    1.106   .     S
C651   C654    1.492   .     S
C651   C655    1.381   .     D
C651   N833    1.371   .     S
C652   C653    1.358   .     S
C652   C655    1.521   .     S
C652   N843    1.490   .     D
C653   H674    1.089   .     S
C653   C133    1.488   1_455 D
C654   H675    1.135   .     S
C655   C656    1.520   .     S
C657   H676    1.104   .     S
C677   C684    1.498   .     D
C677   C691    1.592   .     S
C677   C695    1.534   .     S
C678   N702    1.284   .     D
C678   H710    1.136   .     S
C678   C742    1.604   .     S
C679   C680    1.605   .     S
C679   C683    1.542   .     D
C679   C698    1.508   .     S
C680   C681    1.441   .     D
C680   C709    1.524   .     S
C681   C708    1.507   .     S
C681   H711    1.167   .     S
C682   C685    1.508   .     S
C682   C690    1.473   .     D
C682   H712    1.051   .     S
C683   C684    1.506   .     S
C683   H713    1.160   .     S
C684   H714    1.182   .     S
C685   C692    1.378   .     D
C685   H715    1.125   .     S
C686   C687    1.436   .     D
C686   C688    1.500   .     S
C686   H716    1.174   .     S
C687   N689    1.544   .     S
C687   C701    1.529   .     S
C688   C700    1.529   .     D
C688   H717    1.113   .     S
N689   C691    1.381   .     D
C690   C697    1.374   .     S
C690   C730    1.604   .     S
C691   H718    1.184   .     S
C692   C693    1.617   .     S
C692   C696    1.477   .     S
C693   C694    1.443   .     S
C693   C709    1.516   .     D
C694   C708    1.512   .     D
C694   H719    1.165   .     S
C695   C698    1.490   .     D
C695   H720    1.149   .     S
C696   C697    1.516   .     D
C696   H721    1.056   .     S
C697   H722    1.131   .     S
C698   H723    1.182   .     S
C699   C700    1.430   .     S
C699   C701    1.503   .     D
C699   H724    1.173   .     S
C700   N702    1.546   .     S
C701   H725    1.106   .     S
C703   C706    1.492   .     S
C703   C707    1.381   .     D
C703   N834    1.371   .     S
C704   C705    1.358   .     S
C704   C707    1.521   .     S
C704   N844    1.490   .     D
C705   H726    1.089   .     S
C706   H727    1.135   .     S
C707   C708    1.520   .     S
C709   H728    1.104   .     S
C729   C736    1.498   .     D
C729   C743    1.592   .     S
C729   C747    1.534   .     S
C730   N754    1.284   .     D
C730   H762    1.136   .     S
C731   C732    1.605   .     S
C731   C735    1.542   .     D
C731   C750    1.508   .     S
C732   C733    1.441   .     D
C732   C761    1.524   .     S
C733   C760    1.507   .     S
C733   H763    1.167   .     S
C734   C737    1.508   .     D
C734   H764    1.051   .     S
C734   C742    1.473   1_556 S
C735   C736    1.506   .     S
C735   H765    1.160   .     S
C736   H766    1.182   .     S
C737   C744    1.378   .     S
C737   H767    1.125   .     S
C738   C739    1.436   .     D
C738   C740    1.500   .     S
C738   H768    1.174   .     S
C739   N741    1.544   .     S
C739   C753    1.529   .     S
C740   C752    1.529   .     D
C740   H769    1.113   .     S
N741   C743    1.381   .     D
C742   C749    1.374   .     D
C742   C734    1.473   1_554 S
C743   H770    1.184   .     S
C744   C745    1.617   .     S
C744   C748    1.477   .     D
C745   C746    1.443   .     S
C745   C761    1.516   .     D
C746   C760    1.512   .     D
C746   H771    1.165   .     S
C747   C750    1.490   .     D
C747   H772    1.149   .     S
C748   H773    1.056   .     S
C748   C749    1.516   1_556 S
C749   H774    1.131   .     S
C749   C748    1.516   1_554 S
C750   H775    1.182   .     S
C751   C752    1.430   .     S
C751   C753    1.503   .     D
C751   H776    1.173   .     S
C752   N754    1.546   .     S
C753   H777    1.106   .     S
C755   C758    1.492   .     S
C755   C759    1.381   .     D
C755   N835    1.371   .     S
C756   C757    1.358   .     S
C756   C759    1.521   .     S
C756   N841    1.490   1_655 D
C757   H778    1.089   .     S
C757   C29     1.488   1_655 D
C758   H779    1.135   .     S
C759   C760    1.520   .     S
C761   H780    1.104   .     S
C781   C788    1.498   .     S
C781   C795    1.592   .     S
C781   C799    1.534   .     D
C782   N806    1.284   .     D
C782   H814    1.136   .     S
C783   C784    1.605   .     S
C783   C787    1.542   .     S
C783   C802    1.508   .     D
C784   C785    1.441   .     D
C784   C813    1.524   .     S
C785   C812    1.507   .     S
C785   H815    1.167   .     S
C786   C789    1.508   .     S
C786   C794    1.473   .     D
C786   H816    1.051   .     S
C787   C788    1.506   .     D
C787   H817    1.160   .     S
C788   H818    1.182   .     S
C789   C796    1.378   .     D
C789   H819    1.125   .     S
C790   C792    1.500   .     S
C790   H820    1.174   .     S
C790   C791    1.436   1_545 D
C791   N793    1.544   .     S
C791   C805    1.529   .     S
C791   C790    1.436   1_565 D
C792   C804    1.529   .     D
C792   H821    1.113   .     S
N793   C795    1.381   .     D
C794   C801    1.374   .     S
C795   H822    1.184   .     S
C796   C797    1.617   .     S
C796   C800    1.477   .     S
C797   C798    1.443   .     S
C797   C813    1.516   .     D
C798   C812    1.512   .     D
C798   H823    1.165   .     S
C799   C802    1.490   .     S
C799   H824    1.149   .     S
C800   C801    1.516   .     D
C800   H825    1.056   .     S
C801   H826    1.131   .     S
C802   H827    1.182   .     S
C803   C805    1.503   .     D
C803   H828    1.173   .     S
C803   C804    1.430   1_565 S
C804   N806    1.546   .     S
C804   C803    1.430   1_545 S
C805   H829    1.106   .     S
C807   C810    1.492   .     S
C807   C811    1.381   .     D
C807   N836    1.371   .     S
C808   C809    1.358   .     S
C808   C811    1.521   .     S
C808   N842    1.490   .     D
C809   H830    1.089   .     S
C810   H831    1.135   .     S
C811   C812    1.520   .     S
C813   H832    1.104   .     S
N841   C756    1.490   1_455 D
N843   C132    1.490   1_455 S
N845   C236    1.490   1_455 S
N847   C444    1.490   1_455 D
