data_952
_audit_creation_date              2023-09-08
_audit_creation_method            'Materials Studio'
_symmetry_space_group_name_H-M    'P1'
_symmetry_Int_Tables_number       1
_symmetry_cell_setting            triclinic
loop_
_symmetry_equiv_pos_as_xyz
  x,y,z
_cell_length_a                    39.8800
_cell_length_b                    35.8100
_cell_length_c                    38.2200
_cell_angle_alpha                 90.0000
_cell_angle_beta                  90.0000
_cell_angle_gamma                 90.0000
loop_
_atom_site_label
_atom_site_type_symbol
_atom_site_fract_x
_atom_site_fract_y
_atom_site_fract_z
_atom_site_U_iso_or_equiv
_atom_site_adp_type
_atom_site_occupancy
C1     C     0.68690   0.43110   0.74840   0.00000  Uiso   1.00
C2     C     0.80710   0.52920   0.55070   0.00000  Uiso   1.00
C3     C     0.65380   0.40640   0.81570   0.00000  Uiso   1.00
C4     C     0.63700   0.39250   0.85140   0.00000  Uiso   1.00
C5     C     0.60970   0.36550   0.85300   0.00000  Uiso   1.00
C6     C     0.69980   0.43110   0.99160   0.00000  Uiso   1.00
C7     C     0.65430   0.38430   0.78470   0.00000  Uiso   1.00
C8     C     0.67020   0.39610   0.75270   0.00000  Uiso   1.00
C9     C     0.68590   0.41430   0.96020   0.00000  Uiso   1.00
C10    C     0.73320   0.52460   0.65930   0.00000  Uiso   1.00
C11    C     0.73360   0.48600   0.66740   0.00000  Uiso   1.00
C12    C     0.74820   0.54070   0.62840   0.00000  Uiso   1.00
N13    N     0.71780   0.47320   0.70150   0.00000  Uiso   1.00
C14    C     0.67960   0.44820   0.01780   0.00000  Uiso   1.00
C15    C     0.70390   0.44080   0.71190   0.00000  Uiso   1.00
C16    C     0.65060   0.41230   0.95320   0.00000  Uiso   1.00
C17    C     0.63540   0.39530   0.91800   0.00000  Uiso   1.00
C18    C     0.60750   0.36900   0.91720   0.00000  Uiso   1.00
C19    C     0.68640   0.45360   0.77910   0.00000  Uiso   1.00
C20    C     0.63060   0.42880   0.97980   0.00000  Uiso   1.00
C21    C     0.64450   0.44660   0.01030   0.00000  Uiso   1.00
C22    C     0.67050   0.44170   0.81150   0.00000  Uiso   1.00
C23    C     0.76770   0.48010   0.61150   0.00000  Uiso   1.00
C24    C     0.76640   0.51900   0.60350   0.00000  Uiso   1.00
C25    C     0.75160   0.46350   0.64220   0.00000  Uiso   1.00
N26    N     0.78030   0.53710   0.57060   0.00000  Uiso   1.00
C27    C     0.57430   0.28180   0.88520   0.00000  Uiso   1.00
C28    C     0.52860   0.33310   0.88580   0.00000  Uiso   1.00
C29    C     0.51750   0.36990   0.88600   0.00000  Uiso   1.00
C30    C     0.60730   0.26950   0.88470   0.00000  Uiso   1.00
C31    C     0.56450   0.32170   0.88550   0.00000  Uiso   1.00
C32    C     0.59390   0.35290   0.88520   0.00000  Uiso   1.00
C33    C     0.64900   0.40620   0.88470   0.00000  Uiso   1.00
C34    C     0.74490   0.58200   0.62230   0.00000  Uiso   1.00
C35    C     0.75430   0.42200   0.64710   0.00000  Uiso   1.00
H36    H     0.60020   0.35420   0.82870   0.00000  Uiso   1.00
H37    H     0.64260   0.35700   0.78510   0.00000  Uiso   1.00
H38    H     0.70300   0.40260   0.94120   0.00000  Uiso   1.00
H39    H     0.72040   0.54290   0.67750   0.00000  Uiso   1.00
H40    H     0.70230   0.41870   0.69290   0.00000  Uiso   1.00
H41    H     0.59670   0.36030   0.94190   0.00000  Uiso   1.00
H42    H     0.69860   0.48060   0.77840   0.00000  Uiso   1.00
H43    H     0.62730   0.45950   0.02860   0.00000  Uiso   1.00
H44    H     0.78060   0.46210   0.59310   0.00000  Uiso   1.00
H45    H     0.53320   0.39450   0.88620   0.00000  Uiso   1.00
H46    H     0.62950   0.28680   0.88440   0.00000  Uiso   1.00
H47    H     0.66940   0.42590   0.88480   0.00000  Uiso   1.00
H48    H     0.73040   0.59580   0.64360   0.00000  Uiso   1.00
H49    H     0.73170   0.58720   0.59720   0.00000  Uiso   1.00
H50    H     0.77010   0.59500   0.62130   0.00000  Uiso   1.00
H51    H     0.72960   0.40890   0.64180   0.00000  Uiso   1.00
H52    H     0.76260   0.41540   0.67410   0.00000  Uiso   1.00
H53    H     0.77260   0.40950   0.62860   0.00000  Uiso   1.00
H54    H     0.82310   0.50670   0.55950   0.00000  Uiso   1.00
H55    H     0.72680   0.43170   0.99460   0.00000  Uiso   1.00
H56    H     0.66940   0.37710   0.73070   0.00000  Uiso   1.00
H57    H     0.60360   0.42900   0.97640   0.00000  Uiso   1.00
H58    H     0.67130   0.46070   0.83340   0.00000  Uiso   1.00
C59    C     0.18690   0.93110   0.24840   0.00000  Uiso   1.00
C60    C     0.30710   0.02920   0.05070   0.00000  Uiso   1.00
C61    C     0.15380   0.90640   0.31570   0.00000  Uiso   1.00
C62    C     0.13700   0.89250   0.35140   0.00000  Uiso   1.00
C63    C     0.10970   0.86550   0.35300   0.00000  Uiso   1.00
C64    C     0.19980   0.93110   0.49160   0.00000  Uiso   1.00
C65    C     0.15430   0.88430   0.28470   0.00000  Uiso   1.00
C66    C     0.17020   0.89610   0.25270   0.00000  Uiso   1.00
C67    C     0.18590   0.91430   0.46020   0.00000  Uiso   1.00
C68    C     0.23320   0.02460   0.15930   0.00000  Uiso   1.00
C69    C     0.23360   0.98600   0.16740   0.00000  Uiso   1.00
C70    C     0.24820   0.04070   0.12840   0.00000  Uiso   1.00
N71    N     0.21780   0.97320   0.20150   0.00000  Uiso   1.00
C72    C     0.17960   0.94820   0.51780   0.00000  Uiso   1.00
C73    C     0.20390   0.94080   0.21190   0.00000  Uiso   1.00
C74    C     0.15060   0.91230   0.45320   0.00000  Uiso   1.00
C75    C     0.13540   0.89530   0.41800   0.00000  Uiso   1.00
C76    C     0.10750   0.86900   0.41720   0.00000  Uiso   1.00
C77    C     0.18640   0.95360   0.27910   0.00000  Uiso   1.00
C78    C     0.13060   0.92880   0.47980   0.00000  Uiso   1.00
C79    C     0.14450   0.94660   0.51030   0.00000  Uiso   1.00
C80    C     0.17050   0.94170   0.31150   0.00000  Uiso   1.00
C81    C     0.26770   0.98010   0.11150   0.00000  Uiso   1.00
C82    C     0.26640   0.01900   0.10350   0.00000  Uiso   1.00
C83    C     0.25160   0.96350   0.14220   0.00000  Uiso   1.00
N84    N     0.28030   0.03710   0.07060   0.00000  Uiso   1.00
C85    C     0.07430   0.78180   0.38520   0.00000  Uiso   1.00
C86    C     0.02860   0.83310   0.38580   0.00000  Uiso   1.00
C87    C     0.01750   0.86990   0.38600   0.00000  Uiso   1.00
C88    C     0.10730   0.76950   0.38470   0.00000  Uiso   1.00
C89    C     0.06450   0.82170   0.38550   0.00000  Uiso   1.00
C90    C     0.09390   0.85290   0.38520   0.00000  Uiso   1.00
C91    C     0.14900   0.90620   0.38470   0.00000  Uiso   1.00
C92    C     0.24490   0.08200   0.12230   0.00000  Uiso   1.00
C93    C     0.25430   0.92200   0.14710   0.00000  Uiso   1.00
H94    H     0.10020   0.85420   0.32870   0.00000  Uiso   1.00
H95    H     0.14260   0.85700   0.28510   0.00000  Uiso   1.00
H96    H     0.20300   0.90260   0.44120   0.00000  Uiso   1.00
H97    H     0.22040   0.04290   0.17750   0.00000  Uiso   1.00
H98    H     0.20230   0.91870   0.19290   0.00000  Uiso   1.00
H99    H     0.09670   0.86030   0.44190   0.00000  Uiso   1.00
H100   H     0.19860   0.98060   0.27840   0.00000  Uiso   1.00
H101   H     0.12730   0.95950   0.52860   0.00000  Uiso   1.00
H102   H     0.28060   0.96210   0.09310   0.00000  Uiso   1.00
H103   H     0.03320   0.89450   0.38620   0.00000  Uiso   1.00
H104   H     0.12950   0.78680   0.38440   0.00000  Uiso   1.00
H105   H     0.16940   0.92590   0.38480   0.00000  Uiso   1.00
H106   H     0.23040   0.09580   0.14360   0.00000  Uiso   1.00
H107   H     0.23170   0.08720   0.09720   0.00000  Uiso   1.00
H108   H     0.27010   0.09500   0.12130   0.00000  Uiso   1.00
H109   H     0.22960   0.90890   0.14180   0.00000  Uiso   1.00
H110   H     0.26260   0.91540   0.17410   0.00000  Uiso   1.00
H111   H     0.27260   0.90950   0.12860   0.00000  Uiso   1.00
H112   H     0.32310   0.00670   0.05950   0.00000  Uiso   1.00
H113   H     0.22680   0.93170   0.49460   0.00000  Uiso   1.00
H114   H     0.16940   0.87710   0.23070   0.00000  Uiso   1.00
H115   H     0.10360   0.92900   0.47640   0.00000  Uiso   1.00
H116   H     0.17130   0.96070   0.33340   0.00000  Uiso   1.00
C117   C     0.31310   0.06890   0.74840   0.00000  Uiso   1.00
C118   C     0.19290   0.97080   0.55070   0.00000  Uiso   1.00
C119   C     0.34620   0.09360   0.81570   0.00000  Uiso   1.00
C120   C     0.36300   0.10750   0.85140   0.00000  Uiso   1.00
C121   C     0.39030   0.13450   0.85300   0.00000  Uiso   1.00
C122   C     0.30020   0.06890   0.99160   0.00000  Uiso   1.00
C123   C     0.34570   0.11570   0.78470   0.00000  Uiso   1.00
C124   C     0.32980   0.10390   0.75270   0.00000  Uiso   1.00
C125   C     0.31410   0.08570   0.96020   0.00000  Uiso   1.00
C126   C     0.26680   0.97540   0.65930   0.00000  Uiso   1.00
C127   C     0.26640   0.01400   0.66740   0.00000  Uiso   1.00
C128   C     0.25180   0.95930   0.62840   0.00000  Uiso   1.00
N129   N     0.28220   0.02680   0.70150   0.00000  Uiso   1.00
C130   C     0.32040   0.05180   0.01780   0.00000  Uiso   1.00
C131   C     0.29610   0.05920   0.71190   0.00000  Uiso   1.00
C132   C     0.34940   0.08770   0.95320   0.00000  Uiso   1.00
C133   C     0.36460   0.10470   0.91800   0.00000  Uiso   1.00
C134   C     0.39250   0.13100   0.91720   0.00000  Uiso   1.00
C135   C     0.31360   0.04640   0.77910   0.00000  Uiso   1.00
C136   C     0.36940   0.07120   0.97980   0.00000  Uiso   1.00
C137   C     0.35550   0.05340   0.01030   0.00000  Uiso   1.00
C138   C     0.32950   0.05830   0.81150   0.00000  Uiso   1.00
C139   C     0.23230   0.01990   0.61150   0.00000  Uiso   1.00
C140   C     0.23360   0.98100   0.60350   0.00000  Uiso   1.00
C141   C     0.24840   0.03650   0.64220   0.00000  Uiso   1.00
N142   N     0.21970   0.96290   0.57060   0.00000  Uiso   1.00
C143   C     0.42570   0.21820   0.88520   0.00000  Uiso   1.00
C144   C     0.47140   0.16690   0.88580   0.00000  Uiso   1.00
C145   C     0.48250   0.13010   0.88600   0.00000  Uiso   1.00
C146   C     0.39270   0.23050   0.88470   0.00000  Uiso   1.00
C147   C     0.43550   0.17830   0.88550   0.00000  Uiso   1.00
C148   C     0.40610   0.14710   0.88520   0.00000  Uiso   1.00
C149   C     0.35100   0.09380   0.88470   0.00000  Uiso   1.00
C150   C     0.25510   0.91800   0.62230   0.00000  Uiso   1.00
C151   C     0.24570   0.07800   0.64710   0.00000  Uiso   1.00
H152   H     0.39980   0.14580   0.82870   0.00000  Uiso   1.00
H153   H     0.35740   0.14300   0.78510   0.00000  Uiso   1.00
H154   H     0.29700   0.09740   0.94120   0.00000  Uiso   1.00
H155   H     0.27960   0.95710   0.67750   0.00000  Uiso   1.00
H156   H     0.29770   0.08130   0.69290   0.00000  Uiso   1.00
H157   H     0.40330   0.13970   0.94190   0.00000  Uiso   1.00
H158   H     0.30140   0.01940   0.77840   0.00000  Uiso   1.00
H159   H     0.37270   0.04050   0.02860   0.00000  Uiso   1.00
H160   H     0.21940   0.03790   0.59310   0.00000  Uiso   1.00
H161   H     0.46680   0.10550   0.88620   0.00000  Uiso   1.00
H162   H     0.37050   0.21320   0.88440   0.00000  Uiso   1.00
H163   H     0.33060   0.07410   0.88480   0.00000  Uiso   1.00
H164   H     0.26960   0.90420   0.64360   0.00000  Uiso   1.00
H165   H     0.26830   0.91280   0.59720   0.00000  Uiso   1.00
H166   H     0.22990   0.90500   0.62130   0.00000  Uiso   1.00
H167   H     0.27040   0.09110   0.64180   0.00000  Uiso   1.00
H168   H     0.23740   0.08460   0.67410   0.00000  Uiso   1.00
H169   H     0.22740   0.09050   0.62860   0.00000  Uiso   1.00
H170   H     0.17690   0.99330   0.55950   0.00000  Uiso   1.00
H171   H     0.27320   0.06830   0.99460   0.00000  Uiso   1.00
H172   H     0.33060   0.12290   0.73070   0.00000  Uiso   1.00
H173   H     0.39640   0.07100   0.97640   0.00000  Uiso   1.00
H174   H     0.32870   0.03930   0.83340   0.00000  Uiso   1.00
C175   C     0.81310   0.56890   0.24840   0.00000  Uiso   1.00
C176   C     0.69290   0.47080   0.05070   0.00000  Uiso   1.00
C177   C     0.84620   0.59360   0.31570   0.00000  Uiso   1.00
C178   C     0.86300   0.60750   0.35140   0.00000  Uiso   1.00
C179   C     0.89030   0.63450   0.35300   0.00000  Uiso   1.00
C180   C     0.80020   0.56890   0.49160   0.00000  Uiso   1.00
C181   C     0.84570   0.61570   0.28470   0.00000  Uiso   1.00
C182   C     0.82980   0.60390   0.25270   0.00000  Uiso   1.00
C183   C     0.81410   0.58570   0.46020   0.00000  Uiso   1.00
C184   C     0.76680   0.47540   0.15930   0.00000  Uiso   1.00
C185   C     0.76640   0.51400   0.16740   0.00000  Uiso   1.00
C186   C     0.75180   0.45930   0.12840   0.00000  Uiso   1.00
N187   N     0.78220   0.52680   0.20150   0.00000  Uiso   1.00
C188   C     0.82040   0.55180   0.51780   0.00000  Uiso   1.00
C189   C     0.79610   0.55920   0.21190   0.00000  Uiso   1.00
C190   C     0.84940   0.58770   0.45320   0.00000  Uiso   1.00
C191   C     0.86460   0.60470   0.41800   0.00000  Uiso   1.00
C192   C     0.89250   0.63100   0.41720   0.00000  Uiso   1.00
C193   C     0.81360   0.54640   0.27910   0.00000  Uiso   1.00
C194   C     0.86940   0.57120   0.47980   0.00000  Uiso   1.00
C195   C     0.85550   0.55340   0.51030   0.00000  Uiso   1.00
C196   C     0.82950   0.55830   0.31150   0.00000  Uiso   1.00
C197   C     0.73230   0.51990   0.11150   0.00000  Uiso   1.00
C198   C     0.73360   0.48100   0.10350   0.00000  Uiso   1.00
C199   C     0.74840   0.53650   0.14220   0.00000  Uiso   1.00
N200   N     0.71970   0.46290   0.07060   0.00000  Uiso   1.00
C201   C     0.92570   0.71820   0.38520   0.00000  Uiso   1.00
C202   C     0.97140   0.66690   0.38580   0.00000  Uiso   1.00
C203   C     0.98250   0.63010   0.38600   0.00000  Uiso   1.00
C204   C     0.89270   0.73050   0.38470   0.00000  Uiso   1.00
C205   C     0.93550   0.67830   0.38550   0.00000  Uiso   1.00
C206   C     0.90610   0.64710   0.38520   0.00000  Uiso   1.00
C207   C     0.85100   0.59380   0.38470   0.00000  Uiso   1.00
C208   C     0.75510   0.41800   0.12230   0.00000  Uiso   1.00
C209   C     0.74570   0.57800   0.14710   0.00000  Uiso   1.00
H210   H     0.89980   0.64580   0.32870   0.00000  Uiso   1.00
H211   H     0.85740   0.64300   0.28510   0.00000  Uiso   1.00
H212   H     0.79700   0.59740   0.44120   0.00000  Uiso   1.00
H213   H     0.77960   0.45710   0.17750   0.00000  Uiso   1.00
H214   H     0.79770   0.58130   0.19290   0.00000  Uiso   1.00
H215   H     0.90330   0.63970   0.44190   0.00000  Uiso   1.00
H216   H     0.80140   0.51940   0.27840   0.00000  Uiso   1.00
H217   H     0.87270   0.54050   0.52860   0.00000  Uiso   1.00
H218   H     0.71940   0.53790   0.09310   0.00000  Uiso   1.00
H219   H     0.96680   0.60550   0.38620   0.00000  Uiso   1.00
H220   H     0.87050   0.71320   0.38440   0.00000  Uiso   1.00
H221   H     0.83060   0.57410   0.38480   0.00000  Uiso   1.00
H222   H     0.76960   0.40420   0.14360   0.00000  Uiso   1.00
H223   H     0.76830   0.41280   0.09720   0.00000  Uiso   1.00
H224   H     0.72990   0.40500   0.12130   0.00000  Uiso   1.00
H225   H     0.77040   0.59110   0.14180   0.00000  Uiso   1.00
H226   H     0.73740   0.58460   0.17410   0.00000  Uiso   1.00
H227   H     0.72740   0.59050   0.12860   0.00000  Uiso   1.00
H228   H     0.67690   0.49330   0.05950   0.00000  Uiso   1.00
H229   H     0.77320   0.56830   0.49460   0.00000  Uiso   1.00
H230   H     0.83060   0.62290   0.23070   0.00000  Uiso   1.00
H231   H     0.89640   0.57100   0.47640   0.00000  Uiso   1.00
H232   H     0.82870   0.53930   0.33340   0.00000  Uiso   1.00
C233   C     0.31310   0.93110   0.25160   0.00000  Uiso   1.00
C234   C     0.19290   0.02920   0.44930   0.00000  Uiso   1.00
C235   C     0.34620   0.90640   0.18430   0.00000  Uiso   1.00
C236   C     0.36300   0.89250   0.14860   0.00000  Uiso   1.00
C237   C     0.39030   0.86550   0.14700   0.00000  Uiso   1.00
C238   C     0.30020   0.93110   0.00840   0.00000  Uiso   1.00
C239   C     0.34570   0.88430   0.21530   0.00000  Uiso   1.00
C240   C     0.32980   0.89610   0.24730   0.00000  Uiso   1.00
C241   C     0.31410   0.91430   0.03980   0.00000  Uiso   1.00
C242   C     0.26680   0.02460   0.34070   0.00000  Uiso   1.00
C243   C     0.26640   0.98600   0.33260   0.00000  Uiso   1.00
C244   C     0.25180   0.04070   0.37160   0.00000  Uiso   1.00
N245   N     0.28220   0.97320   0.29850   0.00000  Uiso   1.00
C246   C     0.32040   0.94820   0.98220   0.00000  Uiso   1.00
C247   C     0.29610   0.94080   0.28810   0.00000  Uiso   1.00
C248   C     0.34940   0.91230   0.04680   0.00000  Uiso   1.00
C249   C     0.36460   0.89530   0.08200   0.00000  Uiso   1.00
C250   C     0.39250   0.86900   0.08280   0.00000  Uiso   1.00
C251   C     0.31360   0.95360   0.22090   0.00000  Uiso   1.00
C252   C     0.36940   0.92880   0.02020   0.00000  Uiso   1.00
C253   C     0.35550   0.94660   0.98970   0.00000  Uiso   1.00
C254   C     0.32950   0.94170   0.18850   0.00000  Uiso   1.00
C255   C     0.23230   0.98010   0.38850   0.00000  Uiso   1.00
C256   C     0.23360   0.01900   0.39650   0.00000  Uiso   1.00
C257   C     0.24840   0.96350   0.35780   0.00000  Uiso   1.00
N258   N     0.21970   0.03710   0.42940   0.00000  Uiso   1.00
C259   C     0.42570   0.78180   0.11480   0.00000  Uiso   1.00
C260   C     0.47140   0.83310   0.11420   0.00000  Uiso   1.00
C261   C     0.48250   0.86990   0.11400   0.00000  Uiso   1.00
C262   C     0.39270   0.76950   0.11530   0.00000  Uiso   1.00
C263   C     0.43550   0.82170   0.11450   0.00000  Uiso   1.00
C264   C     0.40610   0.85290   0.11480   0.00000  Uiso   1.00
C265   C     0.35100   0.90620   0.11530   0.00000  Uiso   1.00
C266   C     0.25510   0.08200   0.37770   0.00000  Uiso   1.00
C267   C     0.24570   0.92200   0.35290   0.00000  Uiso   1.00
H268   H     0.39980   0.85420   0.17130   0.00000  Uiso   1.00
H269   H     0.35740   0.85700   0.21490   0.00000  Uiso   1.00
H270   H     0.29700   0.90260   0.05880   0.00000  Uiso   1.00
H271   H     0.27960   0.04290   0.32250   0.00000  Uiso   1.00
H272   H     0.29770   0.91870   0.30710   0.00000  Uiso   1.00
H273   H     0.40330   0.86030   0.05810   0.00000  Uiso   1.00
H274   H     0.30140   0.98060   0.22160   0.00000  Uiso   1.00
H275   H     0.37270   0.95950   0.97140   0.00000  Uiso   1.00
H276   H     0.21940   0.96210   0.40690   0.00000  Uiso   1.00
H277   H     0.46680   0.89450   0.11380   0.00000  Uiso   1.00
H278   H     0.37050   0.78680   0.11560   0.00000  Uiso   1.00
H279   H     0.33060   0.92590   0.11520   0.00000  Uiso   1.00
H280   H     0.26960   0.09580   0.35640   0.00000  Uiso   1.00
H281   H     0.26830   0.08720   0.40280   0.00000  Uiso   1.00
H282   H     0.22990   0.09500   0.37870   0.00000  Uiso   1.00
H283   H     0.27040   0.90890   0.35820   0.00000  Uiso   1.00
H284   H     0.23740   0.91540   0.32590   0.00000  Uiso   1.00
H285   H     0.22740   0.90950   0.37140   0.00000  Uiso   1.00
H286   H     0.17690   0.00670   0.44050   0.00000  Uiso   1.00
H287   H     0.27320   0.93170   0.00540   0.00000  Uiso   1.00
H288   H     0.33060   0.87710   0.26930   0.00000  Uiso   1.00
H289   H     0.39640   0.92900   0.02360   0.00000  Uiso   1.00
H290   H     0.32870   0.96070   0.16660   0.00000  Uiso   1.00
C291   C     0.81310   0.43110   0.75160   0.00000  Uiso   1.00
C292   C     0.69290   0.52920   0.94930   0.00000  Uiso   1.00
C293   C     0.84620   0.40640   0.68430   0.00000  Uiso   1.00
C294   C     0.86300   0.39250   0.64860   0.00000  Uiso   1.00
C295   C     0.89030   0.36550   0.64700   0.00000  Uiso   1.00
C296   C     0.80020   0.43110   0.50840   0.00000  Uiso   1.00
C297   C     0.84570   0.38430   0.71530   0.00000  Uiso   1.00
C298   C     0.82980   0.39610   0.74730   0.00000  Uiso   1.00
C299   C     0.81410   0.41430   0.53980   0.00000  Uiso   1.00
C300   C     0.76680   0.52460   0.84070   0.00000  Uiso   1.00
C301   C     0.76640   0.48600   0.83260   0.00000  Uiso   1.00
C302   C     0.75180   0.54070   0.87160   0.00000  Uiso   1.00
N303   N     0.78220   0.47320   0.79850   0.00000  Uiso   1.00
C304   C     0.82040   0.44820   0.48220   0.00000  Uiso   1.00
C305   C     0.79610   0.44080   0.78810   0.00000  Uiso   1.00
C306   C     0.84940   0.41230   0.54680   0.00000  Uiso   1.00
C307   C     0.86460   0.39530   0.58200   0.00000  Uiso   1.00
C308   C     0.89250   0.36900   0.58280   0.00000  Uiso   1.00
C309   C     0.81360   0.45360   0.72090   0.00000  Uiso   1.00
C310   C     0.86940   0.42880   0.52020   0.00000  Uiso   1.00
C311   C     0.85550   0.44660   0.48970   0.00000  Uiso   1.00
C312   C     0.82950   0.44170   0.68850   0.00000  Uiso   1.00
C313   C     0.73230   0.48010   0.88850   0.00000  Uiso   1.00
C314   C     0.73360   0.51900   0.89650   0.00000  Uiso   1.00
C315   C     0.74840   0.46350   0.85780   0.00000  Uiso   1.00
N316   N     0.71970   0.53710   0.92940   0.00000  Uiso   1.00
C317   C     0.92570   0.28180   0.61480   0.00000  Uiso   1.00
C318   C     0.97140   0.33310   0.61420   0.00000  Uiso   1.00
C319   C     0.98250   0.36990   0.61400   0.00000  Uiso   1.00
C320   C     0.89270   0.26950   0.61530   0.00000  Uiso   1.00
C321   C     0.93550   0.32170   0.61450   0.00000  Uiso   1.00
C322   C     0.90610   0.35290   0.61480   0.00000  Uiso   1.00
C323   C     0.85100   0.40620   0.61530   0.00000  Uiso   1.00
C324   C     0.75510   0.58200   0.87770   0.00000  Uiso   1.00
C325   C     0.74570   0.42200   0.85290   0.00000  Uiso   1.00
H326   H     0.89980   0.35420   0.67130   0.00000  Uiso   1.00
H327   H     0.85740   0.35700   0.71490   0.00000  Uiso   1.00
H328   H     0.79700   0.40260   0.55880   0.00000  Uiso   1.00
H329   H     0.77960   0.54290   0.82250   0.00000  Uiso   1.00
H330   H     0.79770   0.41870   0.80710   0.00000  Uiso   1.00
H331   H     0.90330   0.36030   0.55810   0.00000  Uiso   1.00
H332   H     0.80140   0.48060   0.72160   0.00000  Uiso   1.00
H333   H     0.87270   0.45950   0.47140   0.00000  Uiso   1.00
H334   H     0.71940   0.46210   0.90690   0.00000  Uiso   1.00
H335   H     0.96680   0.39450   0.61380   0.00000  Uiso   1.00
H336   H     0.87050   0.28680   0.61560   0.00000  Uiso   1.00
H337   H     0.83060   0.42590   0.61520   0.00000  Uiso   1.00
H338   H     0.76960   0.59580   0.85640   0.00000  Uiso   1.00
H339   H     0.76830   0.58720   0.90280   0.00000  Uiso   1.00
H340   H     0.72990   0.59500   0.87870   0.00000  Uiso   1.00
H341   H     0.77040   0.40890   0.85820   0.00000  Uiso   1.00
H342   H     0.73740   0.41540   0.82590   0.00000  Uiso   1.00
H343   H     0.72740   0.40950   0.87140   0.00000  Uiso   1.00
H344   H     0.67690   0.50670   0.94050   0.00000  Uiso   1.00
H345   H     0.77320   0.43170   0.50540   0.00000  Uiso   1.00
H346   H     0.83060   0.37710   0.76930   0.00000  Uiso   1.00
H347   H     0.89640   0.42900   0.52360   0.00000  Uiso   1.00
H348   H     0.82870   0.46070   0.66660   0.00000  Uiso   1.00
C349   C     0.68690   0.56890   0.25160   0.00000  Uiso   1.00
C350   C     0.80710   0.47080   0.44930   0.00000  Uiso   1.00
C351   C     0.65380   0.59360   0.18430   0.00000  Uiso   1.00
C352   C     0.63700   0.60750   0.14860   0.00000  Uiso   1.00
C353   C     0.60970   0.63450   0.14700   0.00000  Uiso   1.00
C354   C     0.69980   0.56890   0.00840   0.00000  Uiso   1.00
C355   C     0.65430   0.61570   0.21530   0.00000  Uiso   1.00
C356   C     0.67020   0.60390   0.24730   0.00000  Uiso   1.00
C357   C     0.68590   0.58570   0.03980   0.00000  Uiso   1.00
C358   C     0.73320   0.47540   0.34070   0.00000  Uiso   1.00
C359   C     0.73360   0.51400   0.33260   0.00000  Uiso   1.00
C360   C     0.74820   0.45930   0.37160   0.00000  Uiso   1.00
N361   N     0.71780   0.52680   0.29850   0.00000  Uiso   1.00
C362   C     0.67960   0.55180   0.98220   0.00000  Uiso   1.00
C363   C     0.70390   0.55920   0.28810   0.00000  Uiso   1.00
C364   C     0.65060   0.58770   0.04680   0.00000  Uiso   1.00
C365   C     0.63540   0.60470   0.08200   0.00000  Uiso   1.00
C366   C     0.60750   0.63100   0.08280   0.00000  Uiso   1.00
C367   C     0.68640   0.54640   0.22090   0.00000  Uiso   1.00
C368   C     0.63060   0.57120   0.02020   0.00000  Uiso   1.00
C369   C     0.64450   0.55340   0.98970   0.00000  Uiso   1.00
C370   C     0.67050   0.55830   0.18850   0.00000  Uiso   1.00
C371   C     0.76770   0.51990   0.38850   0.00000  Uiso   1.00
C372   C     0.76640   0.48100   0.39650   0.00000  Uiso   1.00
C373   C     0.75160   0.53650   0.35780   0.00000  Uiso   1.00
N374   N     0.78030   0.46290   0.42940   0.00000  Uiso   1.00
C375   C     0.57430   0.71820   0.11480   0.00000  Uiso   1.00
C376   C     0.52860   0.66690   0.11420   0.00000  Uiso   1.00
C377   C     0.51750   0.63010   0.11400   0.00000  Uiso   1.00
C378   C     0.60730   0.73050   0.11530   0.00000  Uiso   1.00
C379   C     0.56450   0.67830   0.11450   0.00000  Uiso   1.00
C380   C     0.59390   0.64710   0.11480   0.00000  Uiso   1.00
C381   C     0.64900   0.59380   0.11530   0.00000  Uiso   1.00
C382   C     0.74490   0.41800   0.37770   0.00000  Uiso   1.00
C383   C     0.75430   0.57800   0.35290   0.00000  Uiso   1.00
H384   H     0.60020   0.64580   0.17130   0.00000  Uiso   1.00
H385   H     0.64260   0.64300   0.21490   0.00000  Uiso   1.00
H386   H     0.70300   0.59740   0.05880   0.00000  Uiso   1.00
H387   H     0.72040   0.45710   0.32250   0.00000  Uiso   1.00
H388   H     0.70230   0.58130   0.30710   0.00000  Uiso   1.00
H389   H     0.59670   0.63970   0.05810   0.00000  Uiso   1.00
H390   H     0.69860   0.51940   0.22160   0.00000  Uiso   1.00
H391   H     0.62730   0.54050   0.97140   0.00000  Uiso   1.00
H392   H     0.78060   0.53790   0.40690   0.00000  Uiso   1.00
H393   H     0.53320   0.60550   0.11380   0.00000  Uiso   1.00
H394   H     0.62950   0.71320   0.11560   0.00000  Uiso   1.00
H395   H     0.66940   0.57410   0.11520   0.00000  Uiso   1.00
H396   H     0.73040   0.40420   0.35640   0.00000  Uiso   1.00
H397   H     0.73170   0.41280   0.40280   0.00000  Uiso   1.00
H398   H     0.77010   0.40500   0.37870   0.00000  Uiso   1.00
H399   H     0.72960   0.59110   0.35820   0.00000  Uiso   1.00
H400   H     0.76260   0.58460   0.32590   0.00000  Uiso   1.00
H401   H     0.77260   0.59050   0.37140   0.00000  Uiso   1.00
H402   H     0.82310   0.49330   0.44050   0.00000  Uiso   1.00
H403   H     0.72680   0.56830   0.00540   0.00000  Uiso   1.00
H404   H     0.66940   0.62290   0.26930   0.00000  Uiso   1.00
H405   H     0.60360   0.57100   0.02360   0.00000  Uiso   1.00
H406   H     0.67130   0.53930   0.16660   0.00000  Uiso   1.00
C407   C     0.18690   0.06890   0.75160   0.00000  Uiso   1.00
C408   C     0.30710   0.97080   0.94930   0.00000  Uiso   1.00
C409   C     0.15380   0.09360   0.68430   0.00000  Uiso   1.00
C410   C     0.13700   0.10750   0.64860   0.00000  Uiso   1.00
C411   C     0.10970   0.13450   0.64700   0.00000  Uiso   1.00
C412   C     0.19980   0.06890   0.50840   0.00000  Uiso   1.00
C413   C     0.15430   0.11570   0.71530   0.00000  Uiso   1.00
C414   C     0.17020   0.10390   0.74730   0.00000  Uiso   1.00
C415   C     0.18590   0.08570   0.53980   0.00000  Uiso   1.00
C416   C     0.23320   0.97540   0.84070   0.00000  Uiso   1.00
C417   C     0.23360   0.01400   0.83260   0.00000  Uiso   1.00
C418   C     0.24820   0.95930   0.87160   0.00000  Uiso   1.00
N419   N     0.21780   0.02680   0.79850   0.00000  Uiso   1.00
C420   C     0.17960   0.05180   0.48220   0.00000  Uiso   1.00
C421   C     0.20390   0.05920   0.78810   0.00000  Uiso   1.00
C422   C     0.15060   0.08770   0.54680   0.00000  Uiso   1.00
C423   C     0.13540   0.10470   0.58200   0.00000  Uiso   1.00
C424   C     0.10750   0.13100   0.58280   0.00000  Uiso   1.00
C425   C     0.18640   0.04640   0.72090   0.00000  Uiso   1.00
C426   C     0.13060   0.07120   0.52020   0.00000  Uiso   1.00
C427   C     0.14450   0.05340   0.48970   0.00000  Uiso   1.00
C428   C     0.17050   0.05830   0.68850   0.00000  Uiso   1.00
C429   C     0.26770   0.01990   0.88850   0.00000  Uiso   1.00
C430   C     0.26640   0.98100   0.89650   0.00000  Uiso   1.00
C431   C     0.25160   0.03650   0.85780   0.00000  Uiso   1.00
N432   N     0.28030   0.96290   0.92940   0.00000  Uiso   1.00
C433   C     0.07430   0.21820   0.61480   0.00000  Uiso   1.00
C434   C     0.02860   0.16690   0.61420   0.00000  Uiso   1.00
C435   C     0.01750   0.13010   0.61400   0.00000  Uiso   1.00
C436   C     0.10730   0.23050   0.61530   0.00000  Uiso   1.00
C437   C     0.06450   0.17830   0.61450   0.00000  Uiso   1.00
C438   C     0.09390   0.14710   0.61480   0.00000  Uiso   1.00
C439   C     0.14900   0.09380   0.61530   0.00000  Uiso   1.00
C440   C     0.24490   0.91800   0.87770   0.00000  Uiso   1.00
C441   C     0.25430   0.07800   0.85290   0.00000  Uiso   1.00
H442   H     0.10020   0.14580   0.67130   0.00000  Uiso   1.00
H443   H     0.14260   0.14300   0.71490   0.00000  Uiso   1.00
H444   H     0.20300   0.09740   0.55880   0.00000  Uiso   1.00
H445   H     0.22040   0.95710   0.82250   0.00000  Uiso   1.00
H446   H     0.20230   0.08130   0.80710   0.00000  Uiso   1.00
H447   H     0.09670   0.13970   0.55810   0.00000  Uiso   1.00
H448   H     0.19860   0.01940   0.72160   0.00000  Uiso   1.00
H449   H     0.12730   0.04050   0.47140   0.00000  Uiso   1.00
H450   H     0.28060   0.03790   0.90690   0.00000  Uiso   1.00
H451   H     0.03320   0.10550   0.61380   0.00000  Uiso   1.00
H452   H     0.12950   0.21320   0.61560   0.00000  Uiso   1.00
H453   H     0.16940   0.07410   0.61520   0.00000  Uiso   1.00
H454   H     0.23040   0.90420   0.85640   0.00000  Uiso   1.00
H455   H     0.23170   0.91280   0.90280   0.00000  Uiso   1.00
H456   H     0.27010   0.90500   0.87870   0.00000  Uiso   1.00
H457   H     0.22960   0.09110   0.85820   0.00000  Uiso   1.00
H458   H     0.26260   0.08460   0.82590   0.00000  Uiso   1.00
H459   H     0.27260   0.09050   0.87140   0.00000  Uiso   1.00
H460   H     0.32310   0.99330   0.94050   0.00000  Uiso   1.00
H461   H     0.22680   0.06830   0.50540   0.00000  Uiso   1.00
H462   H     0.16940   0.12290   0.76930   0.00000  Uiso   1.00
H463   H     0.10360   0.07100   0.52360   0.00000  Uiso   1.00
H464   H     0.17130   0.03930   0.66660   0.00000  Uiso   1.00
C465   C     0.31310   0.56890   0.25160   0.00000  Uiso   1.00
C466   C     0.19290   0.47080   0.44930   0.00000  Uiso   1.00
C467   C     0.34620   0.59360   0.18430   0.00000  Uiso   1.00
C468   C     0.36300   0.60750   0.14860   0.00000  Uiso   1.00
C469   C     0.39030   0.63450   0.14700   0.00000  Uiso   1.00
C470   C     0.30020   0.56890   0.00840   0.00000  Uiso   1.00
C471   C     0.34570   0.61570   0.21530   0.00000  Uiso   1.00
C472   C     0.32980   0.60390   0.24730   0.00000  Uiso   1.00
C473   C     0.31410   0.58570   0.03980   0.00000  Uiso   1.00
C474   C     0.26680   0.47540   0.34070   0.00000  Uiso   1.00
C475   C     0.26640   0.51400   0.33260   0.00000  Uiso   1.00
C476   C     0.25180   0.45930   0.37160   0.00000  Uiso   1.00
N477   N     0.28220   0.52680   0.29850   0.00000  Uiso   1.00
C478   C     0.32040   0.55180   0.98220   0.00000  Uiso   1.00
C479   C     0.29610   0.55920   0.28810   0.00000  Uiso   1.00
C480   C     0.34940   0.58770   0.04680   0.00000  Uiso   1.00
C481   C     0.36460   0.60470   0.08200   0.00000  Uiso   1.00
C482   C     0.39250   0.63100   0.08280   0.00000  Uiso   1.00
C483   C     0.31360   0.54640   0.22090   0.00000  Uiso   1.00
C484   C     0.36940   0.57120   0.02020   0.00000  Uiso   1.00
C485   C     0.35550   0.55340   0.98970   0.00000  Uiso   1.00
C486   C     0.32950   0.55830   0.18850   0.00000  Uiso   1.00
C487   C     0.23230   0.51990   0.38850   0.00000  Uiso   1.00
C488   C     0.23360   0.48100   0.39650   0.00000  Uiso   1.00
C489   C     0.24840   0.53650   0.35780   0.00000  Uiso   1.00
N490   N     0.21970   0.46290   0.42940   0.00000  Uiso   1.00
C491   C     0.42570   0.71820   0.11480   0.00000  Uiso   1.00
C492   C     0.47140   0.66690   0.11420   0.00000  Uiso   1.00
C493   C     0.48250   0.63010   0.11400   0.00000  Uiso   1.00
C494   C     0.39270   0.73050   0.11530   0.00000  Uiso   1.00
C495   C     0.43550   0.67830   0.11450   0.00000  Uiso   1.00
C496   C     0.40610   0.64710   0.11480   0.00000  Uiso   1.00
C497   C     0.35100   0.59380   0.11530   0.00000  Uiso   1.00
C498   C     0.25510   0.41800   0.37770   0.00000  Uiso   1.00
C499   C     0.24570   0.57800   0.35290   0.00000  Uiso   1.00
H500   H     0.39980   0.64580   0.17130   0.00000  Uiso   1.00
H501   H     0.35740   0.64300   0.21490   0.00000  Uiso   1.00
H502   H     0.29700   0.59740   0.05880   0.00000  Uiso   1.00
H503   H     0.27960   0.45710   0.32250   0.00000  Uiso   1.00
H504   H     0.29770   0.58130   0.30710   0.00000  Uiso   1.00
H505   H     0.40330   0.63970   0.05810   0.00000  Uiso   1.00
H506   H     0.30140   0.51940   0.22160   0.00000  Uiso   1.00
H507   H     0.37270   0.54050   0.97140   0.00000  Uiso   1.00
H508   H     0.21940   0.53790   0.40690   0.00000  Uiso   1.00
H509   H     0.46680   0.60550   0.11380   0.00000  Uiso   1.00
H510   H     0.37050   0.71320   0.11560   0.00000  Uiso   1.00
H511   H     0.33060   0.57410   0.11520   0.00000  Uiso   1.00
H512   H     0.26960   0.40420   0.35640   0.00000  Uiso   1.00
H513   H     0.26830   0.41280   0.40280   0.00000  Uiso   1.00
H514   H     0.22990   0.40500   0.37870   0.00000  Uiso   1.00
H515   H     0.27040   0.59110   0.35820   0.00000  Uiso   1.00
H516   H     0.23740   0.58460   0.32590   0.00000  Uiso   1.00
H517   H     0.22740   0.59050   0.37140   0.00000  Uiso   1.00
H518   H     0.17690   0.49330   0.44050   0.00000  Uiso   1.00
H519   H     0.27320   0.56830   0.00540   0.00000  Uiso   1.00
H520   H     0.33060   0.62290   0.26930   0.00000  Uiso   1.00
H521   H     0.39640   0.57100   0.02360   0.00000  Uiso   1.00
H522   H     0.32870   0.53930   0.16660   0.00000  Uiso   1.00
C523   C     0.81310   0.06890   0.75160   0.00000  Uiso   1.00
C524   C     0.69290   0.97080   0.94930   0.00000  Uiso   1.00
C525   C     0.84620   0.09360   0.68430   0.00000  Uiso   1.00
C526   C     0.86300   0.10750   0.64860   0.00000  Uiso   1.00
C527   C     0.89030   0.13450   0.64700   0.00000  Uiso   1.00
C528   C     0.80020   0.06890   0.50840   0.00000  Uiso   1.00
C529   C     0.84570   0.11570   0.71530   0.00000  Uiso   1.00
C530   C     0.82980   0.10390   0.74730   0.00000  Uiso   1.00
C531   C     0.81410   0.08570   0.53980   0.00000  Uiso   1.00
C532   C     0.76680   0.97540   0.84070   0.00000  Uiso   1.00
C533   C     0.76640   0.01400   0.83260   0.00000  Uiso   1.00
C534   C     0.75180   0.95930   0.87160   0.00000  Uiso   1.00
N535   N     0.78220   0.02680   0.79850   0.00000  Uiso   1.00
C536   C     0.82040   0.05180   0.48220   0.00000  Uiso   1.00
C537   C     0.79610   0.05920   0.78810   0.00000  Uiso   1.00
C538   C     0.84940   0.08770   0.54680   0.00000  Uiso   1.00
C539   C     0.86460   0.10470   0.58200   0.00000  Uiso   1.00
C540   C     0.89250   0.13100   0.58280   0.00000  Uiso   1.00
C541   C     0.81360   0.04640   0.72090   0.00000  Uiso   1.00
C542   C     0.86940   0.07120   0.52020   0.00000  Uiso   1.00
C543   C     0.85550   0.05340   0.48970   0.00000  Uiso   1.00
C544   C     0.82950   0.05830   0.68850   0.00000  Uiso   1.00
C545   C     0.73230   0.01990   0.88850   0.00000  Uiso   1.00
C546   C     0.73360   0.98100   0.89650   0.00000  Uiso   1.00
C547   C     0.74840   0.03650   0.85780   0.00000  Uiso   1.00
N548   N     0.71970   0.96290   0.92940   0.00000  Uiso   1.00
C549   C     0.92570   0.21820   0.61480   0.00000  Uiso   1.00
C550   C     0.97140   0.16690   0.61420   0.00000  Uiso   1.00
C551   C     0.98250   0.13010   0.61400   0.00000  Uiso   1.00
C552   C     0.89270   0.23050   0.61530   0.00000  Uiso   1.00
C553   C     0.93550   0.17830   0.61450   0.00000  Uiso   1.00
C554   C     0.90610   0.14710   0.61480   0.00000  Uiso   1.00
C555   C     0.85100   0.09380   0.61530   0.00000  Uiso   1.00
C556   C     0.75510   0.91800   0.87770   0.00000  Uiso   1.00
C557   C     0.74570   0.07800   0.85290   0.00000  Uiso   1.00
H558   H     0.89980   0.14580   0.67130   0.00000  Uiso   1.00
H559   H     0.85740   0.14300   0.71490   0.00000  Uiso   1.00
H560   H     0.79700   0.09740   0.55880   0.00000  Uiso   1.00
H561   H     0.77960   0.95710   0.82250   0.00000  Uiso   1.00
H562   H     0.79770   0.08130   0.80710   0.00000  Uiso   1.00
H563   H     0.90330   0.13970   0.55810   0.00000  Uiso   1.00
H564   H     0.80140   0.01940   0.72160   0.00000  Uiso   1.00
H565   H     0.87270   0.04050   0.47140   0.00000  Uiso   1.00
H566   H     0.71940   0.03790   0.90690   0.00000  Uiso   1.00
H567   H     0.96680   0.10550   0.61380   0.00000  Uiso   1.00
H568   H     0.87050   0.21320   0.61560   0.00000  Uiso   1.00
H569   H     0.83060   0.07410   0.61520   0.00000  Uiso   1.00
H570   H     0.76960   0.90420   0.85640   0.00000  Uiso   1.00
H571   H     0.76830   0.91280   0.90280   0.00000  Uiso   1.00
H572   H     0.72990   0.90500   0.87870   0.00000  Uiso   1.00
H573   H     0.77040   0.09110   0.85820   0.00000  Uiso   1.00
H574   H     0.73740   0.08460   0.82590   0.00000  Uiso   1.00
H575   H     0.72740   0.09050   0.87140   0.00000  Uiso   1.00
H576   H     0.67690   0.99330   0.94050   0.00000  Uiso   1.00
H577   H     0.77320   0.06830   0.50540   0.00000  Uiso   1.00
H578   H     0.83060   0.12290   0.76930   0.00000  Uiso   1.00
H579   H     0.89640   0.07100   0.52360   0.00000  Uiso   1.00
H580   H     0.82870   0.03930   0.66660   0.00000  Uiso   1.00
C581   C     0.68690   0.93110   0.25160   0.00000  Uiso   1.00
C582   C     0.80710   0.02920   0.44930   0.00000  Uiso   1.00
C583   C     0.65380   0.90640   0.18430   0.00000  Uiso   1.00
C584   C     0.63700   0.89250   0.14860   0.00000  Uiso   1.00
C585   C     0.60970   0.86550   0.14700   0.00000  Uiso   1.00
C586   C     0.69980   0.93110   0.00840   0.00000  Uiso   1.00
C587   C     0.65430   0.88430   0.21530   0.00000  Uiso   1.00
C588   C     0.67020   0.89610   0.24730   0.00000  Uiso   1.00
C589   C     0.68590   0.91430   0.03980   0.00000  Uiso   1.00
C590   C     0.73320   0.02460   0.34070   0.00000  Uiso   1.00
C591   C     0.73360   0.98600   0.33260   0.00000  Uiso   1.00
C592   C     0.74820   0.04070   0.37160   0.00000  Uiso   1.00
N593   N     0.71780   0.97320   0.29850   0.00000  Uiso   1.00
C594   C     0.67960   0.94820   0.98220   0.00000  Uiso   1.00
C595   C     0.70390   0.94080   0.28810   0.00000  Uiso   1.00
C596   C     0.65060   0.91230   0.04680   0.00000  Uiso   1.00
C597   C     0.63540   0.89530   0.08200   0.00000  Uiso   1.00
C598   C     0.60750   0.86900   0.08280   0.00000  Uiso   1.00
C599   C     0.68640   0.95360   0.22090   0.00000  Uiso   1.00
C600   C     0.63060   0.92880   0.02020   0.00000  Uiso   1.00
C601   C     0.64450   0.94660   0.98970   0.00000  Uiso   1.00
C602   C     0.67050   0.94170   0.18850   0.00000  Uiso   1.00
C603   C     0.76770   0.98010   0.38850   0.00000  Uiso   1.00
C604   C     0.76640   0.01900   0.39650   0.00000  Uiso   1.00
C605   C     0.75160   0.96350   0.35780   0.00000  Uiso   1.00
N606   N     0.78030   0.03710   0.42940   0.00000  Uiso   1.00
C607   C     0.57430   0.78180   0.11480   0.00000  Uiso   1.00
C608   C     0.52860   0.83310   0.11420   0.00000  Uiso   1.00
C609   C     0.51750   0.86990   0.11400   0.00000  Uiso   1.00
C610   C     0.60730   0.76950   0.11530   0.00000  Uiso   1.00
C611   C     0.56450   0.82170   0.11450   0.00000  Uiso   1.00
C612   C     0.59390   0.85290   0.11480   0.00000  Uiso   1.00
C613   C     0.64900   0.90620   0.11530   0.00000  Uiso   1.00
C614   C     0.74490   0.08200   0.37770   0.00000  Uiso   1.00
C615   C     0.75430   0.92200   0.35290   0.00000  Uiso   1.00
H616   H     0.60020   0.85420   0.17130   0.00000  Uiso   1.00
H617   H     0.64260   0.85700   0.21490   0.00000  Uiso   1.00
H618   H     0.70300   0.90260   0.05880   0.00000  Uiso   1.00
H619   H     0.72040   0.04290   0.32250   0.00000  Uiso   1.00
H620   H     0.70230   0.91870   0.30710   0.00000  Uiso   1.00
H621   H     0.59670   0.86030   0.05810   0.00000  Uiso   1.00
H622   H     0.69860   0.98060   0.22160   0.00000  Uiso   1.00
H623   H     0.62730   0.95950   0.97140   0.00000  Uiso   1.00
H624   H     0.78060   0.96210   0.40690   0.00000  Uiso   1.00
H625   H     0.53320   0.89450   0.11380   0.00000  Uiso   1.00
H626   H     0.62950   0.78680   0.11560   0.00000  Uiso   1.00
H627   H     0.66940   0.92590   0.11520   0.00000  Uiso   1.00
H628   H     0.73040   0.09580   0.35640   0.00000  Uiso   1.00
H629   H     0.73170   0.08720   0.40280   0.00000  Uiso   1.00
H630   H     0.77010   0.09500   0.37870   0.00000  Uiso   1.00
H631   H     0.72960   0.90890   0.35820   0.00000  Uiso   1.00
H632   H     0.76260   0.91540   0.32590   0.00000  Uiso   1.00
H633   H     0.77260   0.90950   0.37140   0.00000  Uiso   1.00
H634   H     0.82310   0.00670   0.44050   0.00000  Uiso   1.00
H635   H     0.72680   0.93170   0.00540   0.00000  Uiso   1.00
H636   H     0.66940   0.87710   0.26930   0.00000  Uiso   1.00
H637   H     0.60360   0.92900   0.02360   0.00000  Uiso   1.00
H638   H     0.67130   0.96070   0.16660   0.00000  Uiso   1.00
C639   C     0.18690   0.43110   0.75160   0.00000  Uiso   1.00
C640   C     0.30710   0.52920   0.94930   0.00000  Uiso   1.00
C641   C     0.15380   0.40640   0.68430   0.00000  Uiso   1.00
C642   C     0.13700   0.39250   0.64860   0.00000  Uiso   1.00
C643   C     0.10970   0.36550   0.64700   0.00000  Uiso   1.00
C644   C     0.19980   0.43110   0.50840   0.00000  Uiso   1.00
C645   C     0.15430   0.38430   0.71530   0.00000  Uiso   1.00
C646   C     0.17020   0.39610   0.74730   0.00000  Uiso   1.00
C647   C     0.18590   0.41430   0.53980   0.00000  Uiso   1.00
C648   C     0.23320   0.52460   0.84070   0.00000  Uiso   1.00
C649   C     0.23360   0.48600   0.83260   0.00000  Uiso   1.00
C650   C     0.24820   0.54070   0.87160   0.00000  Uiso   1.00
N651   N     0.21780   0.47320   0.79850   0.00000  Uiso   1.00
C652   C     0.17960   0.44820   0.48220   0.00000  Uiso   1.00
C653   C     0.20390   0.44080   0.78810   0.00000  Uiso   1.00
C654   C     0.15060   0.41230   0.54680   0.00000  Uiso   1.00
C655   C     0.13540   0.39530   0.58200   0.00000  Uiso   1.00
C656   C     0.10750   0.36900   0.58280   0.00000  Uiso   1.00
C657   C     0.18640   0.45360   0.72090   0.00000  Uiso   1.00
C658   C     0.13060   0.42880   0.52020   0.00000  Uiso   1.00
C659   C     0.14450   0.44660   0.48970   0.00000  Uiso   1.00
C660   C     0.17050   0.44170   0.68850   0.00000  Uiso   1.00
C661   C     0.26770   0.48010   0.88850   0.00000  Uiso   1.00
C662   C     0.26640   0.51900   0.89650   0.00000  Uiso   1.00
C663   C     0.25160   0.46350   0.85780   0.00000  Uiso   1.00
N664   N     0.28030   0.53710   0.92940   0.00000  Uiso   1.00
C665   C     0.07430   0.28180   0.61480   0.00000  Uiso   1.00
C666   C     0.02860   0.33310   0.61420   0.00000  Uiso   1.00
C667   C     0.01750   0.36990   0.61400   0.00000  Uiso   1.00
C668   C     0.10730   0.26950   0.61530   0.00000  Uiso   1.00
C669   C     0.06450   0.32170   0.61450   0.00000  Uiso   1.00
C670   C     0.09390   0.35290   0.61480   0.00000  Uiso   1.00
C671   C     0.14900   0.40620   0.61530   0.00000  Uiso   1.00
C672   C     0.24490   0.58200   0.87770   0.00000  Uiso   1.00
C673   C     0.25430   0.42200   0.85290   0.00000  Uiso   1.00
H674   H     0.10020   0.35420   0.67130   0.00000  Uiso   1.00
H675   H     0.14260   0.35700   0.71490   0.00000  Uiso   1.00
H676   H     0.20300   0.40260   0.55880   0.00000  Uiso   1.00
H677   H     0.22040   0.54290   0.82250   0.00000  Uiso   1.00
H678   H     0.20230   0.41870   0.80710   0.00000  Uiso   1.00
H679   H     0.09670   0.36030   0.55810   0.00000  Uiso   1.00
H680   H     0.19860   0.48060   0.72160   0.00000  Uiso   1.00
H681   H     0.12730   0.45950   0.47140   0.00000  Uiso   1.00
H682   H     0.28060   0.46210   0.90690   0.00000  Uiso   1.00
H683   H     0.03320   0.39450   0.61380   0.00000  Uiso   1.00
H684   H     0.12950   0.28680   0.61560   0.00000  Uiso   1.00
H685   H     0.16940   0.42590   0.61520   0.00000  Uiso   1.00
H686   H     0.23040   0.59580   0.85640   0.00000  Uiso   1.00
H687   H     0.23170   0.58720   0.90280   0.00000  Uiso   1.00
H688   H     0.27010   0.59500   0.87870   0.00000  Uiso   1.00
H689   H     0.22960   0.40890   0.85820   0.00000  Uiso   1.00
H690   H     0.26260   0.41540   0.82590   0.00000  Uiso   1.00
H691   H     0.27260   0.40950   0.87140   0.00000  Uiso   1.00
H692   H     0.32310   0.50670   0.94050   0.00000  Uiso   1.00
H693   H     0.22680   0.43170   0.50540   0.00000  Uiso   1.00
H694   H     0.16940   0.37710   0.76930   0.00000  Uiso   1.00
H695   H     0.10360   0.42900   0.52360   0.00000  Uiso   1.00
H696   H     0.17130   0.46070   0.66660   0.00000  Uiso   1.00
C697   C     0.68690   0.06890   0.74840   0.00000  Uiso   1.00
C698   C     0.80710   0.97080   0.55070   0.00000  Uiso   1.00
C699   C     0.65380   0.09360   0.81570   0.00000  Uiso   1.00
C700   C     0.63700   0.10750   0.85140   0.00000  Uiso   1.00
C701   C     0.60970   0.13450   0.85300   0.00000  Uiso   1.00
C702   C     0.69980   0.06890   0.99160   0.00000  Uiso   1.00
C703   C     0.65430   0.11570   0.78470   0.00000  Uiso   1.00
C704   C     0.67020   0.10390   0.75270   0.00000  Uiso   1.00
C705   C     0.68590   0.08570   0.96020   0.00000  Uiso   1.00
C706   C     0.73320   0.97540   0.65930   0.00000  Uiso   1.00
C707   C     0.73360   0.01400   0.66740   0.00000  Uiso   1.00
C708   C     0.74820   0.95930   0.62840   0.00000  Uiso   1.00
N709   N     0.71780   0.02680   0.70150   0.00000  Uiso   1.00
C710   C     0.67960   0.05180   0.01780   0.00000  Uiso   1.00
C711   C     0.70390   0.05920   0.71190   0.00000  Uiso   1.00
C712   C     0.65060   0.08770   0.95320   0.00000  Uiso   1.00
C713   C     0.63540   0.10470   0.91800   0.00000  Uiso   1.00
C714   C     0.60750   0.13100   0.91720   0.00000  Uiso   1.00
C715   C     0.68640   0.04640   0.77910   0.00000  Uiso   1.00
C716   C     0.63060   0.07120   0.97980   0.00000  Uiso   1.00
C717   C     0.64450   0.05340   0.01030   0.00000  Uiso   1.00
C718   C     0.67050   0.05830   0.81150   0.00000  Uiso   1.00
C719   C     0.76770   0.01990   0.61150   0.00000  Uiso   1.00
C720   C     0.76640   0.98100   0.60350   0.00000  Uiso   1.00
C721   C     0.75160   0.03650   0.64220   0.00000  Uiso   1.00
N722   N     0.78030   0.96290   0.57060   0.00000  Uiso   1.00
C723   C     0.57430   0.21820   0.88520   0.00000  Uiso   1.00
C724   C     0.52860   0.16690   0.88580   0.00000  Uiso   1.00
C725   C     0.51750   0.13010   0.88600   0.00000  Uiso   1.00
C726   C     0.60730   0.23050   0.88470   0.00000  Uiso   1.00
C727   C     0.56450   0.17830   0.88550   0.00000  Uiso   1.00
C728   C     0.59390   0.14710   0.88520   0.00000  Uiso   1.00
C729   C     0.64900   0.09380   0.88470   0.00000  Uiso   1.00
C730   C     0.74490   0.91800   0.62230   0.00000  Uiso   1.00
C731   C     0.75430   0.07800   0.64710   0.00000  Uiso   1.00
H732   H     0.60020   0.14580   0.82870   0.00000  Uiso   1.00
H733   H     0.64260   0.14300   0.78510   0.00000  Uiso   1.00
H734   H     0.70300   0.09740   0.94120   0.00000  Uiso   1.00
H735   H     0.72040   0.95710   0.67750   0.00000  Uiso   1.00
H736   H     0.70230   0.08130   0.69290   0.00000  Uiso   1.00
H737   H     0.59670   0.13970   0.94190   0.00000  Uiso   1.00
H738   H     0.69860   0.01940   0.77840   0.00000  Uiso   1.00
H739   H     0.62730   0.04050   0.02860   0.00000  Uiso   1.00
H740   H     0.78060   0.03790   0.59310   0.00000  Uiso   1.00
H741   H     0.53320   0.10550   0.88620   0.00000  Uiso   1.00
H742   H     0.62950   0.21320   0.88440   0.00000  Uiso   1.00
H743   H     0.66940   0.07410   0.88480   0.00000  Uiso   1.00
H744   H     0.73040   0.90420   0.64360   0.00000  Uiso   1.00
H745   H     0.73170   0.91280   0.59720   0.00000  Uiso   1.00
H746   H     0.77010   0.90500   0.62130   0.00000  Uiso   1.00
H747   H     0.72960   0.09110   0.64180   0.00000  Uiso   1.00
H748   H     0.76260   0.08460   0.67410   0.00000  Uiso   1.00
H749   H     0.77260   0.09050   0.62860   0.00000  Uiso   1.00
H750   H     0.82310   0.99330   0.55950   0.00000  Uiso   1.00
H751   H     0.72680   0.06830   0.99460   0.00000  Uiso   1.00
H752   H     0.66940   0.12290   0.73070   0.00000  Uiso   1.00
H753   H     0.60360   0.07100   0.97640   0.00000  Uiso   1.00
H754   H     0.67130   0.03930   0.83340   0.00000  Uiso   1.00
C755   C     0.18690   0.56890   0.24840   0.00000  Uiso   1.00
C756   C     0.30710   0.47080   0.05070   0.00000  Uiso   1.00
C757   C     0.15380   0.59360   0.31570   0.00000  Uiso   1.00
C758   C     0.13700   0.60750   0.35140   0.00000  Uiso   1.00
C759   C     0.10970   0.63450   0.35300   0.00000  Uiso   1.00
C760   C     0.19980   0.56890   0.49160   0.00000  Uiso   1.00
C761   C     0.15430   0.61570   0.28470   0.00000  Uiso   1.00
C762   C     0.17020   0.60390   0.25270   0.00000  Uiso   1.00
C763   C     0.18590   0.58570   0.46020   0.00000  Uiso   1.00
C764   C     0.23320   0.47540   0.15930   0.00000  Uiso   1.00
C765   C     0.23360   0.51400   0.16740   0.00000  Uiso   1.00
C766   C     0.24820   0.45930   0.12840   0.00000  Uiso   1.00
N767   N     0.21780   0.52680   0.20150   0.00000  Uiso   1.00
C768   C     0.17960   0.55180   0.51780   0.00000  Uiso   1.00
C769   C     0.20390   0.55920   0.21190   0.00000  Uiso   1.00
C770   C     0.15060   0.58770   0.45320   0.00000  Uiso   1.00
C771   C     0.13540   0.60470   0.41800   0.00000  Uiso   1.00
C772   C     0.10750   0.63100   0.41720   0.00000  Uiso   1.00
C773   C     0.18640   0.54640   0.27910   0.00000  Uiso   1.00
C774   C     0.13060   0.57120   0.47980   0.00000  Uiso   1.00
C775   C     0.14450   0.55340   0.51030   0.00000  Uiso   1.00
C776   C     0.17050   0.55830   0.31150   0.00000  Uiso   1.00
C777   C     0.26770   0.51990   0.11150   0.00000  Uiso   1.00
C778   C     0.26640   0.48100   0.10350   0.00000  Uiso   1.00
C779   C     0.25160   0.53650   0.14220   0.00000  Uiso   1.00
N780   N     0.28030   0.46290   0.07060   0.00000  Uiso   1.00
C781   C     0.07430   0.71820   0.38520   0.00000  Uiso   1.00
C782   C     0.02860   0.66690   0.38580   0.00000  Uiso   1.00
C783   C     0.01750   0.63010   0.38600   0.00000  Uiso   1.00
C784   C     0.10730   0.73050   0.38470   0.00000  Uiso   1.00
C785   C     0.06450   0.67830   0.38550   0.00000  Uiso   1.00
C786   C     0.09390   0.64710   0.38520   0.00000  Uiso   1.00
C787   C     0.14900   0.59380   0.38470   0.00000  Uiso   1.00
C788   C     0.24490   0.41800   0.12230   0.00000  Uiso   1.00
C789   C     0.25430   0.57800   0.14710   0.00000  Uiso   1.00
H790   H     0.10020   0.64580   0.32870   0.00000  Uiso   1.00
H791   H     0.14260   0.64300   0.28510   0.00000  Uiso   1.00
H792   H     0.20300   0.59740   0.44120   0.00000  Uiso   1.00
H793   H     0.22040   0.45710   0.17750   0.00000  Uiso   1.00
H794   H     0.20230   0.58130   0.19290   0.00000  Uiso   1.00
H795   H     0.09670   0.63970   0.44190   0.00000  Uiso   1.00
H796   H     0.19860   0.51940   0.27840   0.00000  Uiso   1.00
H797   H     0.12730   0.54050   0.52860   0.00000  Uiso   1.00
H798   H     0.28060   0.53790   0.09310   0.00000  Uiso   1.00
H799   H     0.03320   0.60550   0.38620   0.00000  Uiso   1.00
H800   H     0.12950   0.71320   0.38440   0.00000  Uiso   1.00
H801   H     0.16940   0.57410   0.38480   0.00000  Uiso   1.00
H802   H     0.23040   0.40420   0.14360   0.00000  Uiso   1.00
H803   H     0.23170   0.41280   0.09720   0.00000  Uiso   1.00
H804   H     0.27010   0.40500   0.12130   0.00000  Uiso   1.00
H805   H     0.22960   0.59110   0.14180   0.00000  Uiso   1.00
H806   H     0.26260   0.58460   0.17410   0.00000  Uiso   1.00
H807   H     0.27260   0.59050   0.12860   0.00000  Uiso   1.00
H808   H     0.32310   0.49330   0.05950   0.00000  Uiso   1.00
H809   H     0.22680   0.56830   0.49460   0.00000  Uiso   1.00
H810   H     0.16940   0.62290   0.23070   0.00000  Uiso   1.00
H811   H     0.10360   0.57100   0.47640   0.00000  Uiso   1.00
H812   H     0.17130   0.53930   0.33340   0.00000  Uiso   1.00
C813   C     0.31310   0.43110   0.74840   0.00000  Uiso   1.00
C814   C     0.19290   0.52920   0.55070   0.00000  Uiso   1.00
C815   C     0.34620   0.40640   0.81570   0.00000  Uiso   1.00
C816   C     0.36300   0.39250   0.85140   0.00000  Uiso   1.00
C817   C     0.39030   0.36550   0.85300   0.00000  Uiso   1.00
C818   C     0.30020   0.43110   0.99160   0.00000  Uiso   1.00
C819   C     0.34570   0.38430   0.78470   0.00000  Uiso   1.00
C820   C     0.32980   0.39610   0.75270   0.00000  Uiso   1.00
C821   C     0.31410   0.41430   0.96020   0.00000  Uiso   1.00
C822   C     0.26680   0.52460   0.65930   0.00000  Uiso   1.00
C823   C     0.26640   0.48600   0.66740   0.00000  Uiso   1.00
C824   C     0.25180   0.54070   0.62840   0.00000  Uiso   1.00
N825   N     0.28220   0.47320   0.70150   0.00000  Uiso   1.00
C826   C     0.32040   0.44820   0.01780   0.00000  Uiso   1.00
C827   C     0.29610   0.44080   0.71190   0.00000  Uiso   1.00
C828   C     0.34940   0.41230   0.95320   0.00000  Uiso   1.00
C829   C     0.36460   0.39530   0.91800   0.00000  Uiso   1.00
C830   C     0.39250   0.36900   0.91720   0.00000  Uiso   1.00
C831   C     0.31360   0.45360   0.77910   0.00000  Uiso   1.00
C832   C     0.36940   0.42880   0.97980   0.00000  Uiso   1.00
C833   C     0.35550   0.44660   0.01030   0.00000  Uiso   1.00
C834   C     0.32950   0.44170   0.81150   0.00000  Uiso   1.00
C835   C     0.23230   0.48010   0.61150   0.00000  Uiso   1.00
C836   C     0.23360   0.51900   0.60350   0.00000  Uiso   1.00
C837   C     0.24840   0.46350   0.64220   0.00000  Uiso   1.00
N838   N     0.21970   0.53710   0.57060   0.00000  Uiso   1.00
C839   C     0.42570   0.28180   0.88520   0.00000  Uiso   1.00
C840   C     0.47140   0.33310   0.88580   0.00000  Uiso   1.00
C841   C     0.48250   0.36990   0.88600   0.00000  Uiso   1.00
C842   C     0.39270   0.26950   0.88470   0.00000  Uiso   1.00
C843   C     0.43550   0.32170   0.88550   0.00000  Uiso   1.00
C844   C     0.40610   0.35290   0.88520   0.00000  Uiso   1.00
C845   C     0.35100   0.40620   0.88470   0.00000  Uiso   1.00
C846   C     0.25510   0.58200   0.62230   0.00000  Uiso   1.00
C847   C     0.24570   0.42200   0.64710   0.00000  Uiso   1.00
H848   H     0.39980   0.35420   0.82870   0.00000  Uiso   1.00
H849   H     0.35740   0.35700   0.78510   0.00000  Uiso   1.00
H850   H     0.29700   0.40260   0.94120   0.00000  Uiso   1.00
H851   H     0.27960   0.54290   0.67750   0.00000  Uiso   1.00
H852   H     0.29770   0.41870   0.69290   0.00000  Uiso   1.00
H853   H     0.40330   0.36030   0.94190   0.00000  Uiso   1.00
H854   H     0.30140   0.48060   0.77840   0.00000  Uiso   1.00
H855   H     0.37270   0.45950   0.02860   0.00000  Uiso   1.00
H856   H     0.21940   0.46210   0.59310   0.00000  Uiso   1.00
H857   H     0.46680   0.39450   0.88620   0.00000  Uiso   1.00
H858   H     0.37050   0.28680   0.88440   0.00000  Uiso   1.00
H859   H     0.33060   0.42590   0.88480   0.00000  Uiso   1.00
H860   H     0.26960   0.59580   0.64360   0.00000  Uiso   1.00
H861   H     0.26830   0.58720   0.59720   0.00000  Uiso   1.00
H862   H     0.22990   0.59500   0.62130   0.00000  Uiso   1.00
H863   H     0.27040   0.40890   0.64180   0.00000  Uiso   1.00
H864   H     0.23740   0.41540   0.67410   0.00000  Uiso   1.00
H865   H     0.22740   0.40950   0.62860   0.00000  Uiso   1.00
H866   H     0.17690   0.50670   0.55950   0.00000  Uiso   1.00
H867   H     0.27320   0.43170   0.99460   0.00000  Uiso   1.00
H868   H     0.33060   0.37710   0.73070   0.00000  Uiso   1.00
H869   H     0.39640   0.42900   0.97640   0.00000  Uiso   1.00
H870   H     0.32870   0.46070   0.83340   0.00000  Uiso   1.00
C871   C     0.81310   0.93110   0.24840   0.00000  Uiso   1.00
C872   C     0.69290   0.02920   0.05070   0.00000  Uiso   1.00
C873   C     0.84620   0.90640   0.31570   0.00000  Uiso   1.00
C874   C     0.86300   0.89250   0.35140   0.00000  Uiso   1.00
C875   C     0.89030   0.86550   0.35300   0.00000  Uiso   1.00
C876   C     0.80020   0.93110   0.49160   0.00000  Uiso   1.00
C877   C     0.84570   0.88430   0.28470   0.00000  Uiso   1.00
C878   C     0.82980   0.89610   0.25270   0.00000  Uiso   1.00
C879   C     0.81410   0.91430   0.46020   0.00000  Uiso   1.00
C880   C     0.76680   0.02460   0.15930   0.00000  Uiso   1.00
C881   C     0.76640   0.98600   0.16740   0.00000  Uiso   1.00
C882   C     0.75180   0.04070   0.12840   0.00000  Uiso   1.00
N883   N     0.78220   0.97320   0.20150   0.00000  Uiso   1.00
C884   C     0.82040   0.94820   0.51780   0.00000  Uiso   1.00
C885   C     0.79610   0.94080   0.21190   0.00000  Uiso   1.00
C886   C     0.84940   0.91230   0.45320   0.00000  Uiso   1.00
C887   C     0.86460   0.89530   0.41800   0.00000  Uiso   1.00
C888   C     0.89250   0.86900   0.41720   0.00000  Uiso   1.00
C889   C     0.81360   0.95360   0.27910   0.00000  Uiso   1.00
C890   C     0.86940   0.92880   0.47980   0.00000  Uiso   1.00
C891   C     0.85550   0.94660   0.51030   0.00000  Uiso   1.00
C892   C     0.82950   0.94170   0.31150   0.00000  Uiso   1.00
C893   C     0.73230   0.98010   0.11150   0.00000  Uiso   1.00
C894   C     0.73360   0.01900   0.10350   0.00000  Uiso   1.00
C895   C     0.74840   0.96350   0.14220   0.00000  Uiso   1.00
N896   N     0.71970   0.03710   0.07060   0.00000  Uiso   1.00
C897   C     0.92570   0.78180   0.38520   0.00000  Uiso   1.00
C898   C     0.97140   0.83310   0.38580   0.00000  Uiso   1.00
C899   C     0.98250   0.86990   0.38600   0.00000  Uiso   1.00
C900   C     0.89270   0.76950   0.38470   0.00000  Uiso   1.00
C901   C     0.93550   0.82170   0.38550   0.00000  Uiso   1.00
C902   C     0.90610   0.85290   0.38520   0.00000  Uiso   1.00
C903   C     0.85100   0.90620   0.38470   0.00000  Uiso   1.00
C904   C     0.75510   0.08200   0.12230   0.00000  Uiso   1.00
C905   C     0.74570   0.92200   0.14710   0.00000  Uiso   1.00
H906   H     0.89980   0.85420   0.32870   0.00000  Uiso   1.00
H907   H     0.85740   0.85700   0.28510   0.00000  Uiso   1.00
H908   H     0.79700   0.90260   0.44120   0.00000  Uiso   1.00
H909   H     0.77960   0.04290   0.17750   0.00000  Uiso   1.00
H910   H     0.79770   0.91870   0.19290   0.00000  Uiso   1.00
H911   H     0.90330   0.86030   0.44190   0.00000  Uiso   1.00
H912   H     0.80140   0.98060   0.27840   0.00000  Uiso   1.00
H913   H     0.87270   0.95950   0.52860   0.00000  Uiso   1.00
H914   H     0.71940   0.96210   0.09310   0.00000  Uiso   1.00
H915   H     0.96680   0.89450   0.38620   0.00000  Uiso   1.00
H916   H     0.87050   0.78680   0.38440   0.00000  Uiso   1.00
H917   H     0.83060   0.92590   0.38480   0.00000  Uiso   1.00
H918   H     0.76960   0.09580   0.14360   0.00000  Uiso   1.00
H919   H     0.76830   0.08720   0.09720   0.00000  Uiso   1.00
H920   H     0.72990   0.09500   0.12130   0.00000  Uiso   1.00
H921   H     0.77040   0.90890   0.14180   0.00000  Uiso   1.00
H922   H     0.73740   0.91540   0.17410   0.00000  Uiso   1.00
H923   H     0.72740   0.90950   0.12860   0.00000  Uiso   1.00
H924   H     0.67690   0.00670   0.05950   0.00000  Uiso   1.00
H925   H     0.77320   0.93170   0.49460   0.00000  Uiso   1.00
H926   H     0.83060   0.87710   0.23070   0.00000  Uiso   1.00
H927   H     0.89640   0.92900   0.47640   0.00000  Uiso   1.00
H928   H     0.82870   0.96070   0.33340   0.00000  Uiso   1.00
N929   N     0.55430   0.25000   0.88550   0.00000  Uiso   1.00
H930   H     0.52840   0.25000   0.88610   0.00000  Uiso   1.00
N931   N     0.05430   0.75000   0.38550   0.00000  Uiso   1.00
H932   H     0.02840   0.75000   0.38610   0.00000  Uiso   1.00
N933   N     0.44570   0.25000   0.88550   0.00000  Uiso   1.00
H934   H     0.47160   0.25000   0.88610   0.00000  Uiso   1.00
N935   N     0.94570   0.75000   0.38550   0.00000  Uiso   1.00
H936   H     0.97160   0.75000   0.38610   0.00000  Uiso   1.00
N937   N     0.44570   0.75000   0.11450   0.00000  Uiso   1.00
H938   H     0.47160   0.75000   0.11390   0.00000  Uiso   1.00
N939   N     0.94570   0.25000   0.61450   0.00000  Uiso   1.00
H940   H     0.97160   0.25000   0.61390   0.00000  Uiso   1.00
N941   N     0.55430   0.75000   0.11450   0.00000  Uiso   1.00
H942   H     0.52840   0.75000   0.11390   0.00000  Uiso   1.00
N943   N     0.05430   0.25000   0.61450   0.00000  Uiso   1.00
H944   H     0.02840   0.25000   0.61390   0.00000  Uiso   1.00
N945   N     0.50000   0.31080   0.88560   0.00000  Uiso   1.00
N946   N     0.00000   0.81080   0.38560   0.00000  Uiso   1.00
N947   N     0.50000   0.18920   0.88560   0.00000  Uiso   1.00
N948   N     0.00000   0.68920   0.38560   0.00000  Uiso   1.00
N949   N     0.50000   0.81080   0.11440   0.00000  Uiso   1.00
N950   N     0.00000   0.31080   0.61440   0.00000  Uiso   1.00
N951   N     0.50000   0.68920   0.11440   0.00000  Uiso   1.00
N952   N     0.00000   0.18920   0.61440   0.00000  Uiso   1.00
loop_
_geom_bond_atom_site_label_1
_geom_bond_atom_site_label_2
_geom_bond_distance
_geom_bond_site_symmetry_2
_ccdc_geom_bond_type
C1     C8      1.429   .     D
C1     C15     1.589   .     S
C1     C19     1.423   .     S
C2     N26     1.342   .     D
C2     H54     1.081   .     S
C2     C188    1.587   .     S
C3     C4      1.599   .     S
C3     C7      1.425   .     D
C3     C22     1.438   .     S
C4     C5      1.457   .     D
C4     C33     1.446   .     S
C5     C32     1.454   .     S
C5     H36     1.082   .     S
C6     C9      1.452   .     S
C6     H55     1.083   .     S
C6     C14     1.424   1_556 D
C7     C8      1.441   .     S
C7     H37     1.083   .     S
C8     H56     1.082   .     S
C9     C16     1.435   .     D
C9     H38     1.081   .     S
C10    C11     1.417   .     D
C10    C12     1.444   .     S
C10    H39     1.083   .     S
C11    N13     1.518   .     S
C11    C25     1.446   .     S
C12    C24     1.427   .     D
C12    C34     1.503   .     S
N13    C15     1.346   .     D
C14    C21     1.430   .     S
C14    C176    1.587   .     S
C14    C6      1.424   1_554 D
C15    H40     1.076   .     S
C16    C17     1.596   .     S
C16    C20     1.421   .     S
C17    C18     1.458   .     S
C17    C33     1.437   .     D
C18    C32     1.457   .     D
C18    H41     1.083   .     S
C19    C22     1.455   .     D
C19    H42     1.083   .     S
C20    H57     1.085   .     S
C20    C21     1.440   1_556 D
C21    H43     1.083   .     S
C21    C20     1.440   1_554 D
C22    H58     1.079   .     S
C23    C24     1.427   .     S
C23    C25     1.464   .     D
C23    H44     1.084   .     S
C24    N26     1.519   .     S
C25    C35     1.502   .     S
C27    C30     1.388   .     S
C27    C31     1.481   .     D
C27    N929    1.390   .     S
C28    C29     1.390   .     S
C28    C31     1.489   .     S
C28    N945    1.392   .     D
C29    H45     1.081   .     S
C29    C841    1.396   .     D
C30    H46     1.081   .     S
C30    C726    1.397   .     D
C31    C32     1.620   .     S
C33    H47     1.077   .     S
C34    H48     1.114   .     S
C34    H49     1.110   .     S
C34    H50     1.108   .     S
C35    H51     1.110   .     S
C35    H52     1.109   .     S
C35    H53     1.110   .     S
C59    C66     1.429   .     S
C59    C73     1.589   .     S
C59    C77     1.423   .     D
C60    N84     1.342   .     D
C60    H112    1.081   .     S
C60    C130    1.587   .     S
C61    C62     1.599   .     S
C61    C65     1.425   .     S
C61    C80     1.438   .     D
C62    C63     1.457   .     D
C62    C91     1.446   .     S
C63    C90     1.454   .     S
C63    H94     1.082   .     S
C64    C67     1.452   .     S
C64    C72     1.424   .     D
C64    H113    1.083   .     S
C65    C66     1.441   .     D
C65    H95     1.083   .     S
C66    H114    1.082   .     S
C67    C74     1.435   .     D
C67    H96     1.081   .     S
C68    C70     1.444   .     S
C68    H97     1.083   .     S
C68    C69     1.417   1_545 D
C69    N71     1.518   .     S
C69    C83     1.446   .     S
C69    C68     1.417   1_565 D
C70    C82     1.427   .     D
C70    C92     1.503   .     S
N71    C73     1.346   .     D
C72    C79     1.430   .     S
C72    C118    1.587   .     S
C73    H98     1.076   .     S
C74    C75     1.596   .     S
C74    C78     1.421   .     S
C75    C76     1.458   .     S
C75    C91     1.437   .     D
C76    C90     1.457   .     D
C76    H99     1.083   .     S
C77    C80     1.455   .     S
C77    H100    1.083   .     S
C78    C79     1.440   .     D
C78    H115    1.085   .     S
C79    H101    1.083   .     S
C80    H116    1.079   .     S
C81    C83     1.464   .     D
C81    H102    1.084   .     S
C81    C82     1.427   1_565 S
C82    N84     1.519   .     S
C82    C81     1.427   1_545 S
C83    C93     1.502   .     S
C85    C88     1.388   .     D
C85    C89     1.481   .     S
C85    N931    1.390   .     S
C86    C87     1.390   .     S
C86    C89     1.489   .     D
C86    N946    1.392   .     S
C87    H103    1.081   .     S
C87    C899    1.396   1_455 D
C88    H104    1.081   .     S
C88    C784    1.397   .     S
C89    C90     1.620   .     S
C91    H105    1.077   .     S
C92    H106    1.114   .     S
C92    H107    1.110   .     S
C92    H108    1.108   .     S
C93    H109    1.110   .     S
C93    H110    1.109   .     S
C93    H111    1.110   .     S
C117   C124    1.429   .     D
C117   C131    1.589   .     S
C117   C135    1.423   .     S
C118   N142    1.342   .     D
C118   H170    1.081   .     S
C119   C120    1.599   .     S
C119   C123    1.425   .     D
C119   C138    1.438   .     S
C120   C121    1.457   .     D
C120   C149    1.446   .     S
C121   C148    1.454   .     S
C121   H152    1.082   .     S
C122   C125    1.452   .     S
C122   H171    1.083   .     S
C122   C130    1.424   1_556 D
C123   C124    1.441   .     S
C123   H153    1.083   .     S
C124   H172    1.082   .     S
C125   C132    1.435   .     D
C125   H154    1.081   .     S
C126   C128    1.444   .     S
C126   H155    1.083   .     S
C126   C127    1.417   1_565 D
C127   N129    1.518   .     S
C127   C141    1.446   .     S
C127   C126    1.417   1_545 D
C128   C140    1.427   .     D
C128   C150    1.503   .     S
N129   C131    1.346   .     D
C130   C137    1.430   .     S
C130   C122    1.424   1_554 D
C131   H156    1.076   .     S
C132   C133    1.596   .     S
C132   C136    1.421   .     S
C133   C134    1.458   .     S
C133   C149    1.437   .     D
C134   C148    1.457   .     D
C134   H157    1.083   .     S
C135   C138    1.455   .     D
C135   H158    1.083   .     S
C136   H173    1.085   .     S
C136   C137    1.440   1_556 D
C137   H159    1.083   .     S
C137   C136    1.440   1_554 D
C138   H174    1.079   .     S
C139   C141    1.464   .     D
C139   H160    1.084   .     S
C139   C140    1.427   1_545 S
C140   N142    1.519   .     S
C140   C139    1.427   1_565 S
C141   C151    1.502   .     S
C143   C146    1.388   .     D
C143   C147    1.481   .     S
C143   N933    1.390   .     S
C144   C145    1.390   .     S
C144   C147    1.489   .     D
C144   N947    1.392   .     S
C145   H161    1.081   .     S
C145   C725    1.396   .     D
C146   H162    1.081   .     S
C146   C842    1.397   .     S
C147   C148    1.620   .     S
C149   H163    1.077   .     S
C150   H164    1.114   .     S
C150   H165    1.110   .     S
C150   H166    1.108   .     S
C151   H167    1.110   .     S
C151   H168    1.109   .     S
C151   H169    1.110   .     S
C175   C182    1.429   .     S
C175   C189    1.589   .     S
C175   C193    1.423   .     D
C176   N200    1.342   .     D
C176   H228    1.081   .     S
C177   C178    1.599   .     S
C177   C181    1.425   .     S
C177   C196    1.438   .     D
C178   C179    1.457   .     D
C178   C207    1.446   .     S
C179   C206    1.454   .     S
C179   H210    1.082   .     S
C180   C183    1.452   .     S
C180   C188    1.424   .     D
C180   H229    1.083   .     S
C181   C182    1.441   .     D
C181   H211    1.083   .     S
C182   H230    1.082   .     S
C183   C190    1.435   .     D
C183   H212    1.081   .     S
C184   C185    1.417   .     S
C184   C186    1.444   .     D
C184   H213    1.083   .     S
C185   N187    1.518   .     S
C185   C199    1.446   .     D
C186   C198    1.427   .     S
C186   C208    1.503   .     S
N187   C189    1.346   .     D
C188   C195    1.430   .     S
C189   H214    1.076   .     S
C190   C191    1.596   .     S
C190   C194    1.421   .     S
C191   C192    1.458   .     S
C191   C207    1.437   .     D
C192   C206    1.457   .     D
C192   H215    1.083   .     S
C193   C196    1.455   .     S
C193   H216    1.083   .     S
C194   C195    1.440   .     D
C194   H231    1.085   .     S
C195   H217    1.083   .     S
C196   H232    1.079   .     S
C197   C198    1.427   .     D
C197   C199    1.464   .     S
C197   H218    1.084   .     S
C198   N200    1.519   .     S
C199   C209    1.502   .     S
C201   C204    1.388   .     S
C201   C205    1.481   .     D
C201   N935    1.390   .     S
C202   C203    1.390   .     S
C202   C205    1.489   .     S
C202   N948    1.392   1_655 D
C203   H219    1.081   .     S
C203   C783    1.396   1_655 D
C204   H220    1.081   .     S
C204   C900    1.397   .     D
C205   C206    1.620   .     S
C207   H221    1.077   .     S
C208   H222    1.114   .     S
C208   H223    1.110   .     S
C208   H224    1.108   .     S
C209   H225    1.110   .     S
C209   H226    1.109   .     S
C209   H227    1.110   .     S
C233   C240    1.429   .     D
C233   C247    1.589   .     S
C233   C251    1.423   .     S
C234   N258    1.342   .     D
C234   H286    1.081   .     S
C234   C420    1.587   .     S
C235   C236    1.599   .     S
C235   C239    1.425   .     D
C235   C254    1.438   .     S
C236   C237    1.457   .     D
C236   C265    1.446   .     S
C237   C264    1.454   .     S
C237   H268    1.082   .     S
C238   C241    1.452   .     S
C238   H287    1.083   .     S
C238   C246    1.424   1_554 D
C239   C240    1.441   .     S
C239   H269    1.083   .     S
C240   H288    1.082   .     S
C241   C248    1.435   .     D
C241   H270    1.081   .     S
C242   C244    1.444   .     S
C242   H271    1.083   .     S
C242   C243    1.417   1_545 D
C243   N245    1.518   .     S
C243   C257    1.446   .     S
C243   C242    1.417   1_565 D
C244   C256    1.427   .     D
C244   C266    1.503   .     S
N245   C247    1.346   .     D
C246   C253    1.430   .     S
C246   C408    1.587   .     S
C246   C238    1.424   1_556 D
C247   H272    1.076   .     S
C248   C249    1.596   .     S
C248   C252    1.421   .     S
C249   C250    1.458   .     S
C249   C265    1.437   .     D
C250   C264    1.457   .     D
C250   H273    1.083   .     S
C251   C254    1.455   .     D
C251   H274    1.083   .     S
C252   H289    1.085   .     S
C252   C253    1.440   1_554 D
C253   H275    1.083   .     S
C253   C252    1.440   1_556 D
C254   H290    1.079   .     S
C255   C257    1.464   .     D
C255   H276    1.084   .     S
C255   C256    1.427   1_565 S
C256   N258    1.519   .     S
C256   C255    1.427   1_545 S
C257   C267    1.502   .     S
C259   C262    1.388   .     S
C259   C263    1.481   .     D
C259   N937    1.390   .     S
C260   C261    1.390   .     S
C260   C263    1.489   .     S
C260   N949    1.392   .     D
C261   H277    1.081   .     S
C261   C609    1.396   .     D
C262   H278    1.081   .     S
C262   C494    1.397   .     D
C263   C264    1.620   .     S
C265   H279    1.077   .     S
C266   H280    1.114   .     S
C266   H281    1.110   .     S
C266   H282    1.108   .     S
C267   H283    1.110   .     S
C267   H284    1.109   .     S
C267   H285    1.110   .     S
C291   C298    1.429   .     S
C291   C305    1.589   .     S
C291   C309    1.423   .     D
C292   N316    1.342   .     D
C292   H344    1.081   .     S
C292   C362    1.587   .     S
C293   C294    1.599   .     S
C293   C297    1.425   .     S
C293   C312    1.438   .     D
C294   C295    1.457   .     D
C294   C323    1.446   .     S
C295   C322    1.454   .     S
C295   H326    1.082   .     S
C296   C299    1.452   .     S
C296   C304    1.424   .     D
C296   H345    1.083   .     S
C297   C298    1.441   .     D
C297   H327    1.083   .     S
C298   H346    1.082   .     S
C299   C306    1.435   .     D
C299   H328    1.081   .     S
C300   C301    1.417   .     S
C300   C302    1.444   .     D
C300   H329    1.083   .     S
C301   N303    1.518   .     S
C301   C315    1.446   .     D
C302   C314    1.427   .     S
C302   C324    1.503   .     S
N303   C305    1.346   .     D
C304   C311    1.430   .     S
C304   C350    1.587   .     S
C305   H330    1.076   .     S
C306   C307    1.596   .     S
C306   C310    1.421   .     S
C307   C308    1.458   .     S
C307   C323    1.437   .     D
C308   C322    1.457   .     D
C308   H331    1.083   .     S
C309   C312    1.455   .     S
C309   H332    1.083   .     S
C310   C311    1.440   .     D
C310   H347    1.085   .     S
C311   H333    1.083   .     S
C312   H348    1.079   .     S
C313   C314    1.427   .     D
C313   C315    1.464   .     S
C313   H334    1.084   .     S
C314   N316    1.519   .     S
C315   C325    1.502   .     S
C317   C320    1.388   .     S
C317   C321    1.481   .     D
C317   N939    1.390   .     S
C318   C319    1.390   .     S
C318   C321    1.489   .     S
C318   N950    1.392   1_655 D
C319   H335    1.081   .     S
C319   C667    1.396   1_655 D
C320   H336    1.081   .     S
C320   C552    1.397   .     D
C321   C322    1.620   .     S
C323   H337    1.077   .     S
C324   H338    1.114   .     S
C324   H339    1.110   .     S
C324   H340    1.108   .     S
C325   H341    1.110   .     S
C325   H342    1.109   .     S
C325   H343    1.110   .     S
C349   C356    1.429   .     D
C349   C363    1.589   .     S
C349   C367    1.423   .     S
C350   N374    1.342   .     D
C350   H402    1.081   .     S
C351   C352    1.599   .     S
C351   C355    1.425   .     D
C351   C370    1.438   .     S
C352   C353    1.457   .     D
C352   C381    1.446   .     S
C353   C380    1.454   .     S
C353   H384    1.082   .     S
C354   C357    1.452   .     S
C354   H403    1.083   .     S
C354   C362    1.424   1_554 D
C355   C356    1.441   .     S
C355   H385    1.083   .     S
C356   H404    1.082   .     S
C357   C364    1.435   .     D
C357   H386    1.081   .     S
C358   C359    1.417   .     D
C358   C360    1.444   .     S
C358   H387    1.083   .     S
C359   N361    1.518   .     S
C359   C373    1.446   .     S
C360   C372    1.427   .     D
C360   C382    1.503   .     S
N361   C363    1.346   .     D
C362   C369    1.430   .     S
C362   C354    1.424   1_556 D
C363   H388    1.076   .     S
C364   C365    1.596   .     S
C364   C368    1.421   .     S
C365   C366    1.458   .     S
C365   C381    1.437   .     D
C366   C380    1.457   .     D
C366   H389    1.083   .     S
C367   C370    1.455   .     D
C367   H390    1.083   .     S
C368   H405    1.085   .     S
C368   C369    1.440   1_554 D
C369   H391    1.083   .     S
C369   C368    1.440   1_556 D
C370   H406    1.079   .     S
C371   C372    1.427   .     S
C371   C373    1.464   .     D
C371   H392    1.084   .     S
C372   N374    1.519   .     S
C373   C383    1.502   .     S
C375   C378    1.388   .     D
C375   C379    1.481   .     S
C375   N941    1.390   .     S
C376   C377    1.390   .     S
C376   C379    1.489   .     D
C376   N951    1.392   .     S
C377   H393    1.081   .     S
C377   C493    1.396   .     D
C378   H394    1.081   .     S
C378   C610    1.397   .     S
C379   C380    1.620   .     S
C381   H395    1.077   .     S
C382   H396    1.114   .     S
C382   H397    1.110   .     S
C382   H398    1.108   .     S
C383   H399    1.110   .     S
C383   H400    1.109   .     S
C383   H401    1.110   .     S
C407   C414    1.429   .     S
C407   C421    1.589   .     S
C407   C425    1.423   .     D
C408   N432    1.342   .     D
C408   H460    1.081   .     S
C409   C410    1.599   .     S
C409   C413    1.425   .     S
C409   C428    1.438   .     D
C410   C411    1.457   .     D
C410   C439    1.446   .     S
C411   C438    1.454   .     S
C411   H442    1.082   .     S
C412   C415    1.452   .     S
C412   C420    1.424   .     D
C412   H461    1.083   .     S
C413   C414    1.441   .     D
C413   H443    1.083   .     S
C414   H462    1.082   .     S
C415   C422    1.435   .     D
C415   H444    1.081   .     S
C416   C418    1.444   .     S
C416   H445    1.083   .     S
C416   C417    1.417   1_565 D
C417   N419    1.518   .     S
C417   C431    1.446   .     S
C417   C416    1.417   1_545 D
C418   C430    1.427   .     D
C418   C440    1.503   .     S
N419   C421    1.346   .     D
C420   C427    1.430   .     S
C421   H446    1.076   .     S
C422   C423    1.596   .     S
C422   C426    1.421   .     S
C423   C424    1.458   .     S
C423   C439    1.437   .     D
C424   C438    1.457   .     D
C424   H447    1.083   .     S
C425   C428    1.455   .     S
C425   H448    1.083   .     S
C426   C427    1.440   .     D
C426   H463    1.085   .     S
C427   H449    1.083   .     S
C428   H464    1.079   .     S
C429   C431    1.464   .     D
C429   H450    1.084   .     S
C429   C430    1.427   1_545 S
C430   N432    1.519   .     S
C430   C429    1.427   1_565 S
C431   C441    1.502   .     S
C433   C436    1.388   .     D
C433   C437    1.481   .     S
C433   N943    1.390   .     S
C434   C435    1.390   .     S
C434   C437    1.489   .     D
C434   N952    1.392   .     S
C435   H451    1.081   .     S
C435   C551    1.396   1_455 D
C436   H452    1.081   .     S
C436   C668    1.397   .     S
C437   C438    1.620   .     S
C439   H453    1.077   .     S
C440   H454    1.114   .     S
C440   H455    1.110   .     S
C440   H456    1.108   .     S
C441   H457    1.110   .     S
C441   H458    1.109   .     S
C441   H459    1.110   .     S
C465   C472    1.429   .     D
C465   C479    1.589   .     S
C465   C483    1.423   .     S
C466   N490    1.342   .     D
C466   H518    1.081   .     S
C466   C652    1.587   .     S
C467   C468    1.599   .     S
C467   C471    1.425   .     D
C467   C486    1.438   .     S
C468   C469    1.457   .     D
C468   C497    1.446   .     S
C469   C496    1.454   .     S
C469   H500    1.082   .     S
C470   C473    1.452   .     S
C470   H519    1.083   .     S
C470   C478    1.424   1_554 D
C471   C472    1.441   .     S
C471   H501    1.083   .     S
C472   H520    1.082   .     S
C473   C480    1.435   .     D
C473   H502    1.081   .     S
C474   C475    1.417   .     D
C474   C476    1.444   .     S
C474   H503    1.083   .     S
C475   N477    1.518   .     S
C475   C489    1.446   .     S
C476   C488    1.427   .     D
C476   C498    1.503   .     S
N477   C479    1.346   .     D
C478   C485    1.430   .     S
C478   C640    1.587   .     S
C478   C470    1.424   1_556 D
C479   H504    1.076   .     S
C480   C481    1.596   .     S
C480   C484    1.421   .     S
C481   C482    1.458   .     S
C481   C497    1.437   .     D
C482   C496    1.457   .     D
C482   H505    1.083   .     S
C483   C486    1.455   .     D
C483   H506    1.083   .     S
C484   H521    1.085   .     S
C484   C485    1.440   1_554 D
C485   H507    1.083   .     S
C485   C484    1.440   1_556 D
C486   H522    1.079   .     S
C487   C488    1.427   .     S
C487   C489    1.464   .     D
C487   H508    1.084   .     S
C488   N490    1.519   .     S
C489   C499    1.502   .     S
C491   C494    1.388   .     S
C491   C495    1.481   .     D
C491   N937    1.390   .     S
C492   C493    1.390   .     S
C492   C495    1.489   .     S
C492   N951    1.392   .     D
C493   H509    1.081   .     S
C494   H510    1.081   .     S
C495   C496    1.620   .     S
C497   H511    1.077   .     S
C498   H512    1.114   .     S
C498   H513    1.110   .     S
C498   H514    1.108   .     S
C499   H515    1.110   .     S
C499   H516    1.109   .     S
C499   H517    1.110   .     S
C523   C530    1.429   .     S
C523   C537    1.589   .     S
C523   C541    1.423   .     D
C524   N548    1.342   .     D
C524   H576    1.081   .     S
C524   C594    1.587   .     S
C525   C526    1.599   .     S
C525   C529    1.425   .     S
C525   C544    1.438   .     D
C526   C527    1.457   .     D
C526   C555    1.446   .     S
C527   C554    1.454   .     S
C527   H558    1.082   .     S
C528   C531    1.452   .     S
C528   C536    1.424   .     D
C528   H577    1.083   .     S
C529   C530    1.441   .     D
C529   H559    1.083   .     S
C530   H578    1.082   .     S
C531   C538    1.435   .     D
C531   H560    1.081   .     S
C532   C534    1.444   .     S
C532   H561    1.083   .     S
C532   C533    1.417   1_565 D
C533   N535    1.518   .     S
C533   C547    1.446   .     S
C533   C532    1.417   1_545 D
C534   C546    1.427   .     D
C534   C556    1.503   .     S
N535   C537    1.346   .     D
C536   C543    1.430   .     S
C536   C582    1.587   .     S
C537   H562    1.076   .     S
C538   C539    1.596   .     S
C538   C542    1.421   .     S
C539   C540    1.458   .     S
C539   C555    1.437   .     D
C540   C554    1.457   .     D
C540   H563    1.083   .     S
C541   C544    1.455   .     S
C541   H564    1.083   .     S
C542   C543    1.440   .     D
C542   H579    1.085   .     S
C543   H565    1.083   .     S
C544   H580    1.079   .     S
C545   C547    1.464   .     D
C545   H566    1.084   .     S
C545   C546    1.427   1_545 S
C546   N548    1.519   .     S
C546   C545    1.427   1_565 S
C547   C557    1.502   .     S
C549   C552    1.388   .     S
C549   C553    1.481   .     D
C549   N939    1.390   .     S
C550   C551    1.390   .     S
C550   C553    1.489   .     S
C550   N952    1.392   1_655 D
C551   H567    1.081   .     S
C551   C435    1.396   1_655 D
C552   H568    1.081   .     S
C553   C554    1.620   .     S
C555   H569    1.077   .     S
C556   H570    1.114   .     S
C556   H571    1.110   .     S
C556   H572    1.108   .     S
C557   H573    1.110   .     S
C557   H574    1.109   .     S
C557   H575    1.110   .     S
C581   C588    1.429   .     D
C581   C595    1.589   .     S
C581   C599    1.423   .     S
C582   N606    1.342   .     D
C582   H634    1.081   .     S
C583   C584    1.599   .     S
C583   C587    1.425   .     D
C583   C602    1.438   .     S
C584   C585    1.457   .     D
C584   C613    1.446   .     S
C585   C612    1.454   .     S
C585   H616    1.082   .     S
C586   C589    1.452   .     S
C586   H635    1.083   .     S
C586   C594    1.424   1_554 D
C587   C588    1.441   .     S
C587   H617    1.083   .     S
C588   H636    1.082   .     S
C589   C596    1.435   .     D
C589   H618    1.081   .     S
C590   C592    1.444   .     S
C590   H619    1.083   .     S
C590   C591    1.417   1_545 D
C591   N593    1.518   .     S
C591   C605    1.446   .     S
C591   C590    1.417   1_565 D
C592   C604    1.427   .     D
C592   C614    1.503   .     S
N593   C595    1.346   .     D
C594   C601    1.430   .     S
C594   C586    1.424   1_556 D
C595   H620    1.076   .     S
C596   C597    1.596   .     S
C596   C600    1.421   .     S
C597   C598    1.458   .     S
C597   C613    1.437   .     D
C598   C612    1.457   .     D
C598   H621    1.083   .     S
C599   C602    1.455   .     D
C599   H622    1.083   .     S
C600   H637    1.085   .     S
C600   C601    1.440   1_554 D
C601   H623    1.083   .     S
C601   C600    1.440   1_556 D
C602   H638    1.079   .     S
C603   C605    1.464   .     D
C603   H624    1.084   .     S
C603   C604    1.427   1_565 S
C604   N606    1.519   .     S
C604   C603    1.427   1_545 S
C605   C615    1.502   .     S
C607   C610    1.388   .     D
C607   C611    1.481   .     S
C607   N941    1.390   .     S
C608   C609    1.390   .     S
C608   C611    1.489   .     D
C608   N949    1.392   .     S
C609   H625    1.081   .     S
C610   H626    1.081   .     S
C611   C612    1.620   .     S
C613   H627    1.077   .     S
C614   H628    1.114   .     S
C614   H629    1.110   .     S
C614   H630    1.108   .     S
C615   H631    1.110   .     S
C615   H632    1.109   .     S
C615   H633    1.110   .     S
C639   C646    1.429   .     S
C639   C653    1.589   .     S
C639   C657    1.423   .     D
C640   N664    1.342   .     D
C640   H692    1.081   .     S
C641   C642    1.599   .     S
C641   C645    1.425   .     S
C641   C660    1.438   .     D
C642   C643    1.457   .     D
C642   C671    1.446   .     S
C643   C670    1.454   .     S
C643   H674    1.082   .     S
C644   C647    1.452   .     S
C644   C652    1.424   .     D
C644   H693    1.083   .     S
C645   C646    1.441   .     D
C645   H675    1.083   .     S
C646   H694    1.082   .     S
C647   C654    1.435   .     D
C647   H676    1.081   .     S
C648   C649    1.417   .     S
C648   C650    1.444   .     D
C648   H677    1.083   .     S
C649   N651    1.518   .     S
C649   C663    1.446   .     D
C650   C662    1.427   .     S
C650   C672    1.503   .     S
N651   C653    1.346   .     D
C652   C659    1.430   .     S
C653   H678    1.076   .     S
C654   C655    1.596   .     S
C654   C658    1.421   .     S
C655   C656    1.458   .     S
C655   C671    1.437   .     D
C656   C670    1.457   .     D
C656   H679    1.083   .     S
C657   C660    1.455   .     S
C657   H680    1.083   .     S
C658   C659    1.440   .     D
C658   H695    1.085   .     S
C659   H681    1.083   .     S
C660   H696    1.079   .     S
C661   C662    1.427   .     D
C661   C663    1.464   .     S
C661   H682    1.084   .     S
C662   N664    1.519   .     S
C663   C673    1.502   .     S
C665   C668    1.388   .     D
C665   C669    1.481   .     S
C665   N943    1.390   .     S
C666   C667    1.390   .     S
C666   C669    1.489   .     D
C666   N950    1.392   .     S
C667   H683    1.081   .     S
C667   C319    1.396   1_455 D
C668   H684    1.081   .     S
C669   C670    1.620   .     S
C671   H685    1.077   .     S
C672   H686    1.114   .     S
C672   H687    1.110   .     S
C672   H688    1.108   .     S
C673   H689    1.110   .     S
C673   H690    1.109   .     S
C673   H691    1.110   .     S
C697   C704    1.429   .     D
C697   C711    1.589   .     S
C697   C715    1.423   .     S
C698   N722    1.342   .     D
C698   H750    1.081   .     S
C698   C884    1.587   .     S
C699   C700    1.599   .     S
C699   C703    1.425   .     D
C699   C718    1.438   .     S
C700   C701    1.457   .     D
C700   C729    1.446   .     S
C701   C728    1.454   .     S
C701   H732    1.082   .     S
C702   C705    1.452   .     S
C702   H751    1.083   .     S
C702   C710    1.424   1_556 D
C703   C704    1.441   .     S
C703   H733    1.083   .     S
C704   H752    1.082   .     S
C705   C712    1.435   .     D
C705   H734    1.081   .     S
C706   C708    1.444   .     S
C706   H735    1.083   .     S
C706   C707    1.417   1_565 D
C707   N709    1.518   .     S
C707   C721    1.446   .     S
C707   C706    1.417   1_545 D
C708   C720    1.427   .     D
C708   C730    1.503   .     S
N709   C711    1.346   .     D
C710   C717    1.430   .     S
C710   C872    1.587   .     S
C710   C702    1.424   1_554 D
C711   H736    1.076   .     S
C712   C713    1.596   .     S
C712   C716    1.421   .     S
C713   C714    1.458   .     S
C713   C729    1.437   .     D
C714   C728    1.457   .     D
C714   H737    1.083   .     S
C715   C718    1.455   .     D
C715   H738    1.083   .     S
C716   H753    1.085   .     S
C716   C717    1.440   1_556 D
C717   H739    1.083   .     S
C717   C716    1.440   1_554 D
C718   H754    1.079   .     S
C719   C721    1.464   .     D
C719   H740    1.084   .     S
C719   C720    1.427   1_545 S
C720   N722    1.519   .     S
C720   C719    1.427   1_565 S
C721   C731    1.502   .     S
C723   C726    1.388   .     S
C723   C727    1.481   .     D
C723   N929    1.390   .     S
C724   C725    1.390   .     S
C724   C727    1.489   .     S
C724   N947    1.392   .     D
C725   H741    1.081   .     S
C726   H742    1.081   .     S
C727   C728    1.620   .     S
C729   H743    1.077   .     S
C730   H744    1.114   .     S
C730   H745    1.110   .     S
C730   H746    1.108   .     S
C731   H747    1.110   .     S
C731   H748    1.109   .     S
C731   H749    1.110   .     S
C755   C762    1.429   .     S
C755   C769    1.589   .     S
C755   C773    1.423   .     D
C756   N780    1.342   .     D
C756   H808    1.081   .     S
C756   C826    1.587   .     S
C757   C758    1.599   .     S
C757   C761    1.425   .     S
C757   C776    1.438   .     D
C758   C759    1.457   .     D
C758   C787    1.446   .     S
C759   C786    1.454   .     S
C759   H790    1.082   .     S
C760   C763    1.452   .     S
C760   C768    1.424   .     D
C760   H809    1.083   .     S
C761   C762    1.441   .     D
C761   H791    1.083   .     S
C762   H810    1.082   .     S
C763   C770    1.435   .     D
C763   H792    1.081   .     S
C764   C765    1.417   .     S
C764   C766    1.444   .     D
C764   H793    1.083   .     S
C765   N767    1.518   .     S
C765   C779    1.446   .     D
C766   C778    1.427   .     S
C766   C788    1.503   .     S
N767   C769    1.346   .     D
C768   C775    1.430   .     S
C768   C814    1.587   .     S
C769   H794    1.076   .     S
C770   C771    1.596   .     S
C770   C774    1.421   .     S
C771   C772    1.458   .     S
C771   C787    1.437   .     D
C772   C786    1.457   .     D
C772   H795    1.083   .     S
C773   C776    1.455   .     S
C773   H796    1.083   .     S
C774   C775    1.440   .     D
C774   H811    1.085   .     S
C775   H797    1.083   .     S
C776   H812    1.079   .     S
C777   C778    1.427   .     D
C777   C779    1.464   .     S
C777   H798    1.084   .     S
C778   N780    1.519   .     S
C779   C789    1.502   .     S
C781   C784    1.388   .     D
C781   C785    1.481   .     S
C781   N931    1.390   .     S
C782   C783    1.390   .     S
C782   C785    1.489   .     D
C782   N948    1.392   .     S
C783   H799    1.081   .     S
C783   C203    1.396   1_455 D
C784   H800    1.081   .     S
C785   C786    1.620   .     S
C787   H801    1.077   .     S
C788   H802    1.114   .     S
C788   H803    1.110   .     S
C788   H804    1.108   .     S
C789   H805    1.110   .     S
C789   H806    1.109   .     S
C789   H807    1.110   .     S
C813   C820    1.429   .     D
C813   C827    1.589   .     S
C813   C831    1.423   .     S
C814   N838    1.342   .     D
C814   H866    1.081   .     S
C815   C816    1.599   .     S
C815   C819    1.425   .     D
C815   C834    1.438   .     S
C816   C817    1.457   .     D
C816   C845    1.446   .     S
C817   C844    1.454   .     S
C817   H848    1.082   .     S
C818   C821    1.452   .     S
C818   H867    1.083   .     S
C818   C826    1.424   1_556 D
C819   C820    1.441   .     S
C819   H849    1.083   .     S
C820   H868    1.082   .     S
C821   C828    1.435   .     D
C821   H850    1.081   .     S
C822   C823    1.417   .     D
C822   C824    1.444   .     S
C822   H851    1.083   .     S
C823   N825    1.518   .     S
C823   C837    1.446   .     S
C824   C836    1.427   .     D
C824   C846    1.503   .     S
N825   C827    1.346   .     D
C826   C833    1.430   .     S
C826   C818    1.424   1_554 D
C827   H852    1.076   .     S
C828   C829    1.596   .     S
C828   C832    1.421   .     S
C829   C830    1.458   .     S
C829   C845    1.437   .     D
C830   C844    1.457   .     D
C830   H853    1.083   .     S
C831   C834    1.455   .     D
C831   H854    1.083   .     S
C832   H869    1.085   .     S
C832   C833    1.440   1_556 D
C833   H855    1.083   .     S
C833   C832    1.440   1_554 D
C834   H870    1.079   .     S
C835   C836    1.427   .     S
C835   C837    1.464   .     D
C835   H856    1.084   .     S
C836   N838    1.519   .     S
C837   C847    1.502   .     S
C839   C842    1.388   .     D
C839   C843    1.481   .     S
C839   N933    1.390   .     S
C840   C841    1.390   .     S
C840   C843    1.489   .     D
C840   N945    1.392   .     S
C841   H857    1.081   .     S
C842   H858    1.081   .     S
C843   C844    1.620   .     S
C845   H859    1.077   .     S
C846   H860    1.114   .     S
C846   H861    1.110   .     S
C846   H862    1.108   .     S
C847   H863    1.110   .     S
C847   H864    1.109   .     S
C847   H865    1.110   .     S
C871   C878    1.429   .     S
C871   C885    1.589   .     S
C871   C889    1.423   .     D
C872   N896    1.342   .     D
C872   H924    1.081   .     S
C873   C874    1.599   .     S
C873   C877    1.425   .     S
C873   C892    1.438   .     D
C874   C875    1.457   .     D
C874   C903    1.446   .     S
C875   C902    1.454   .     S
C875   H906    1.082   .     S
C876   C879    1.452   .     S
C876   C884    1.424   .     D
C876   H925    1.083   .     S
C877   C878    1.441   .     D
C877   H907    1.083   .     S
C878   H926    1.082   .     S
C879   C886    1.435   .     D
C879   H908    1.081   .     S
C880   C882    1.444   .     S
C880   H909    1.083   .     S
C880   C881    1.417   1_545 D
C881   N883    1.518   .     S
C881   C895    1.446   .     S
C881   C880    1.417   1_565 D
C882   C894    1.427   .     D
C882   C904    1.503   .     S
N883   C885    1.346   .     D
C884   C891    1.430   .     S
C885   H910    1.076   .     S
C886   C887    1.596   .     S
C886   C890    1.421   .     S
C887   C888    1.458   .     S
C887   C903    1.437   .     D
C888   C902    1.457   .     D
C888   H911    1.083   .     S
C889   C892    1.455   .     S
C889   H912    1.083   .     S
C890   C891    1.440   .     D
C890   H927    1.085   .     S
C891   H913    1.083   .     S
C892   H928    1.079   .     S
C893   C895    1.464   .     D
C893   H914    1.084   .     S
C893   C894    1.427   1_565 S
C894   N896    1.519   .     S
C894   C893    1.427   1_545 S
C895   C905    1.502   .     S
C897   C900    1.388   .     S
C897   C901    1.481   .     D
C897   N935    1.390   .     S
C898   C899    1.390   .     S
C898   C901    1.489   .     S
C898   N946    1.392   1_655 D
C899   H915    1.081   .     S
C899   C87     1.396   1_655 D
C900   H916    1.081   .     S
C901   C902    1.620   .     S
C903   H917    1.077   .     S
C904   H918    1.114   .     S
C904   H919    1.110   .     S
C904   H920    1.108   .     S
C905   H921    1.110   .     S
C905   H922    1.109   .     S
C905   H923    1.110   .     S
N929   H930    1.033   .     S
N931   H932    1.033   .     S
N933   H934    1.033   .     S
N935   H936    1.033   .     S
N937   H938    1.033   .     S
N939   H940    1.033   .     S
N941   H942    1.033   .     S
N943   H944    1.033   .     S
N946   C898    1.392   1_455 D
N948   C202    1.392   1_455 D
N950   C318    1.392   1_455 D
N952   C550    1.392   1_455 D
