data_955
_audit_creation_date              2023-09-08
_audit_creation_method            'Materials Studio'
_symmetry_space_group_name_H-M    'P1'
_symmetry_Int_Tables_number       1
_symmetry_cell_setting            triclinic
loop_
_symmetry_equiv_pos_as_xyz
  x,y,z
_cell_length_a                    25.4941
_cell_length_b                    25.4941
_cell_length_c                    12.5420
_cell_angle_alpha                 90.0000
_cell_angle_beta                  90.0000
_cell_angle_gamma                 120.0000
loop_
_atom_site_label
_atom_site_type_symbol
_atom_site_fract_x
_atom_site_fract_y
_atom_site_fract_z
_atom_site_U_iso_or_equiv
_atom_site_adp_type
_atom_site_occupancy
C1     C     0.04530   0.06155   1.00096   0.00000  Uiso   1.00
C2     C     0.09339   0.12671   1.00990   0.00000  Uiso   1.00
C3     C     0.10162   0.16875   0.92969   0.00000  Uiso   1.00
C4     C     0.14179   0.22997   0.94541   0.00000  Uiso   1.00
C5     C     0.17471   0.25048   1.04160   0.00000  Uiso   1.00
C6     C     0.16932   0.20795   1.11878   0.00000  Uiso   1.00
C7     C     0.12881   0.14661   1.10316   0.00000  Uiso   1.00
C8     C     0.88455   0.20215   0.92439   0.00000  Uiso   1.00
N9     N     0.20119   0.35227   1.00320   0.00000  Uiso   1.00
C10    C     0.22823   0.41455   1.02228   0.00000  Uiso   1.00
C11    C     0.19187   0.44153   1.00942   0.00000  Uiso   1.00
C12    C     0.21742   0.50369   1.02108   0.00000  Uiso   1.00
C13    C     0.27992   0.54027   1.04170   0.00000  Uiso   1.00
C14    C     0.31582   0.51304   1.05612   0.00000  Uiso   1.00
C15    C     0.29038   0.45064   1.04742   0.00000  Uiso   1.00
C16    C     0.30792   0.60662   1.04282   0.00000  Uiso   1.00
N17    N     0.36919   0.64035   1.04220   0.00000  Uiso   1.00
H18    H     0.07540   0.15338   0.85642   0.00000  Uiso   1.00
H19    H     0.14662   0.26265   0.88466   0.00000  Uiso   1.00
H20    H     0.19527   0.22327   1.19257   0.00000  Uiso   1.00
H21    H     0.12317   0.11406   1.16460   0.00000  Uiso   1.00
H22    H     0.85653   0.18935   0.85043   0.00000  Uiso   1.00
H23    H     0.14387   0.41314   0.99162   0.00000  Uiso   1.00
H24    H     0.18960   0.52478   1.01169   0.00000  Uiso   1.00
H25    H     0.36395   0.54137   1.07332   0.00000  Uiso   1.00
H26    H     0.31859   0.42995   1.05666   0.00000  Uiso   1.00
C27    C     0.95451   0.93829   0.99991   0.00000  Uiso   1.00
C28    C     0.90848   0.87262   0.98237   0.00000  Uiso   1.00
C29    C     0.86443   0.83604   1.05798   0.00000  Uiso   1.00
C30    C     0.82616   0.77448   1.03851   0.00000  Uiso   1.00
C31    C     0.83087   0.74804   0.94266   0.00000  Uiso   1.00
C32    C     0.87358   0.78535   0.86568   0.00000  Uiso   1.00
C33    C     0.91170   0.84669   0.88502   0.00000  Uiso   1.00
C34    C     0.10717   0.79161   1.06467   0.00000  Uiso   1.00
N35    N     0.75919   0.64344   0.99099   0.00000  Uiso   1.00
C36    C     0.73932   0.58131   0.97878   0.00000  Uiso   1.00
C37    C     0.78290   0.56235   0.97993   0.00000  Uiso   1.00
C38    C     0.76449   0.50106   0.97677   0.00000  Uiso   1.00
C39    C     0.70246   0.45706   0.97125   0.00000  Uiso   1.00
C40    C     0.65944   0.47646   0.96663   0.00000  Uiso   1.00
C41    C     0.67721   0.53766   0.97244   0.00000  Uiso   1.00
C42    C     0.68354   0.39206   0.97291   0.00000  Uiso   1.00
N43    N     0.62349   0.35078   0.97374   0.00000  Uiso   1.00
H44    H     0.86111   0.85574   1.13298   0.00000  Uiso   1.00
H45    H     0.79329   0.74626   1.09876   0.00000  Uiso   1.00
H46    H     0.87756   0.76571   0.79094   0.00000  Uiso   1.00
H47    H     0.94477   0.87468   0.82492   0.00000  Uiso   1.00
H48    H     0.09550   0.76484   1.14000   0.00000  Uiso   1.00
H49    H     0.83089   0.59590   0.98588   0.00000  Uiso   1.00
H50    H     0.79821   0.48671   0.97931   0.00000  Uiso   1.00
H51    H     0.61153   0.44282   0.95940   0.00000  Uiso   1.00
H52    H     0.64354   0.55202   0.96960   0.00000  Uiso   1.00
C53    C     0.71197   0.39488   0.33429   0.00000  Uiso   1.00
C54    C     0.76006   0.46004   0.34323   0.00000  Uiso   1.00
C55    C     0.76829   0.50208   0.26302   0.00000  Uiso   1.00
C56    C     0.80846   0.56330   0.27874   0.00000  Uiso   1.00
C57    C     0.84138   0.58381   0.37493   0.00000  Uiso   1.00
C58    C     0.83599   0.54128   0.45211   0.00000  Uiso   1.00
C59    C     0.79548   0.47994   0.43649   0.00000  Uiso   1.00
C60    C     0.55122   0.53548   0.25772   0.00000  Uiso   1.00
N61    N     0.86786   0.68560   0.33653   0.00000  Uiso   1.00
C62    C     0.89490   0.74788   0.35561   0.00000  Uiso   1.00
C63    C     0.85854   0.77486   0.34275   0.00000  Uiso   1.00
C64    C     0.88409   0.83702   0.35441   0.00000  Uiso   1.00
C65    C     0.94659   0.87360   0.37503   0.00000  Uiso   1.00
C66    C     0.98249   0.84637   0.38945   0.00000  Uiso   1.00
C67    C     0.95705   0.78397   0.38075   0.00000  Uiso   1.00
C68    C     0.97459   0.93995   0.37615   0.00000  Uiso   1.00
N69    N     0.03586   0.97368   0.37553   0.00000  Uiso   1.00
H70    H     0.74207   0.48671   0.18975   0.00000  Uiso   1.00
H71    H     0.81329   0.59598   0.21799   0.00000  Uiso   1.00
H72    H     0.86194   0.55660   0.52590   0.00000  Uiso   1.00
H73    H     0.78984   0.44739   0.49793   0.00000  Uiso   1.00
H74    H     0.52320   0.52268   0.18376   0.00000  Uiso   1.00
H75    H     0.81054   0.74647   0.32495   0.00000  Uiso   1.00
H76    H     0.85627   0.85811   0.34502   0.00000  Uiso   1.00
H77    H     0.03062   0.87470   0.40665   0.00000  Uiso   1.00
H78    H     0.98526   0.76328   0.38999   0.00000  Uiso   1.00
C79    C     0.62118   0.27162   0.33324   0.00000  Uiso   1.00
C80    C     0.57515   0.20595   0.31570   0.00000  Uiso   1.00
C81    C     0.53110   0.16937   0.39131   0.00000  Uiso   1.00
C82    C     0.49283   0.10781   0.37184   0.00000  Uiso   1.00
C83    C     0.49754   0.08137   0.27599   0.00000  Uiso   1.00
C84    C     0.54025   0.11868   0.19901   0.00000  Uiso   1.00
C85    C     0.57837   0.18002   0.21835   0.00000  Uiso   1.00
C86    C     0.77384   0.12494   0.39800   0.00000  Uiso   1.00
N87    N     0.42586   0.97677   0.32432   0.00000  Uiso   1.00
C88    C     0.40599   0.91464   0.31211   0.00000  Uiso   1.00
C89    C     0.44957   0.89568   0.31326   0.00000  Uiso   1.00
C90    C     0.43116   0.83439   0.31010   0.00000  Uiso   1.00
C91    C     0.36913   0.79039   0.30458   0.00000  Uiso   1.00
C92    C     0.32611   0.80979   0.29996   0.00000  Uiso   1.00
C93    C     0.34388   0.87099   0.30577   0.00000  Uiso   1.00
C94    C     0.35021   0.72539   0.30624   0.00000  Uiso   1.00
N95    N     0.29016   0.68411   0.30707   0.00000  Uiso   1.00
H96    H     0.52778   0.18907   0.46631   0.00000  Uiso   1.00
H97    H     0.45996   0.07959   0.43209   0.00000  Uiso   1.00
H98    H     0.54423   0.09904   0.12427   0.00000  Uiso   1.00
H99    H     0.61144   0.20801   0.15825   0.00000  Uiso   1.00
H100   H     0.76217   0.09817   0.47333   0.00000  Uiso   1.00
H101   H     0.49756   0.92923   0.31921   0.00000  Uiso   1.00
H102   H     0.46488   0.82004   0.31264   0.00000  Uiso   1.00
H103   H     0.27820   0.77615   0.29273   0.00000  Uiso   1.00
H104   H     0.31021   0.88535   0.30293   0.00000  Uiso   1.00
C105   C     0.37863   0.72822   0.66763   0.00000  Uiso   1.00
C106   C     0.42672   0.79338   0.67657   0.00000  Uiso   1.00
C107   C     0.43495   0.83542   0.59636   0.00000  Uiso   1.00
C108   C     0.47512   0.89664   0.61208   0.00000  Uiso   1.00
C109   C     0.50804   0.91715   0.70827   0.00000  Uiso   1.00
C110   C     0.50265   0.87462   0.78545   0.00000  Uiso   1.00
C111   C     0.46214   0.81328   0.76983   0.00000  Uiso   1.00
C112   C     0.21788   0.86882   0.59106   0.00000  Uiso   1.00
N113   N     0.53452   0.01894   0.66987   0.00000  Uiso   1.00
C114   C     0.56156   0.08122   0.68895   0.00000  Uiso   1.00
C115   C     0.52520   0.10820   0.67609   0.00000  Uiso   1.00
C116   C     0.55075   0.17036   0.68775   0.00000  Uiso   1.00
C117   C     0.61325   0.20694   0.70837   0.00000  Uiso   1.00
C118   C     0.64915   0.17971   0.72279   0.00000  Uiso   1.00
C119   C     0.62371   0.11731   0.71409   0.00000  Uiso   1.00
C120   C     0.64125   0.27329   0.70949   0.00000  Uiso   1.00
N121   N     0.70252   0.30702   0.70887   0.00000  Uiso   1.00
H122   H     0.40873   0.82005   0.52309   0.00000  Uiso   1.00
H123   H     0.47995   0.92932   0.55133   0.00000  Uiso   1.00
H124   H     0.52860   0.88994   0.85924   0.00000  Uiso   1.00
H125   H     0.45650   0.78073   0.83127   0.00000  Uiso   1.00
H126   H     0.18986   0.85602   0.51710   0.00000  Uiso   1.00
H127   H     0.47720   0.07981   0.65829   0.00000  Uiso   1.00
H128   H     0.52293   0.19145   0.67836   0.00000  Uiso   1.00
H129   H     0.69728   0.20804   0.73999   0.00000  Uiso   1.00
H130   H     0.65192   0.09662   0.72333   0.00000  Uiso   1.00
C131   C     0.28784   0.60496   0.66658   0.00000  Uiso   1.00
C132   C     0.24181   0.53929   0.64904   0.00000  Uiso   1.00
C133   C     0.19776   0.50271   0.72465   0.00000  Uiso   1.00
C134   C     0.15949   0.44115   0.70518   0.00000  Uiso   1.00
C135   C     0.16420   0.41471   0.60933   0.00000  Uiso   1.00
C136   C     0.20691   0.45202   0.53235   0.00000  Uiso   1.00
C137   C     0.24503   0.51336   0.55169   0.00000  Uiso   1.00
C138   C     0.44050   0.45828   0.73134   0.00000  Uiso   1.00
N139   N     0.09252   0.31011   0.65766   0.00000  Uiso   1.00
C140   C     0.07265   0.24798   0.64545   0.00000  Uiso   1.00
C141   C     0.11623   0.22902   0.64660   0.00000  Uiso   1.00
C142   C     0.09782   0.16773   0.64344   0.00000  Uiso   1.00
C143   C     0.03579   0.12373   0.63792   0.00000  Uiso   1.00
C144   C     0.99277   0.14313   0.63330   0.00000  Uiso   1.00
C145   C     0.01054   0.20433   0.63911   0.00000  Uiso   1.00
C146   C     0.01687   0.05873   0.63958   0.00000  Uiso   1.00
N147   N     0.95682   0.01745   0.64041   0.00000  Uiso   1.00
H148   H     0.19444   0.52241   0.79965   0.00000  Uiso   1.00
H149   H     0.12662   0.41293   0.76543   0.00000  Uiso   1.00
H150   H     0.21089   0.43238   0.45761   0.00000  Uiso   1.00
H151   H     0.27810   0.54135   0.49159   0.00000  Uiso   1.00
H152   H     0.42883   0.43151   0.80667   0.00000  Uiso   1.00
H153   H     0.16422   0.26257   0.65255   0.00000  Uiso   1.00
H154   H     0.13154   0.15338   0.64598   0.00000  Uiso   1.00
H155   H     0.94486   0.10949   0.62607   0.00000  Uiso   1.00
H156   H     0.97687   0.21869   0.63627   0.00000  Uiso   1.00
C157   C     0.93845   0.98375   1.00096   0.00000  Uiso   1.00
C158   C     0.87329   0.96668   1.00990   0.00000  Uiso   1.00
C159   C     0.83125   0.93287   0.92969   0.00000  Uiso   1.00
C160   C     0.77003   0.91182   0.94541   0.00000  Uiso   1.00
C161   C     0.74952   0.92423   1.04160   0.00000  Uiso   1.00
C162   C     0.79205   0.96137   1.11878   0.00000  Uiso   1.00
C163   C     0.85339   0.98220   1.10316   0.00000  Uiso   1.00
C164   C     0.79785   0.68240   0.92439   0.00000  Uiso   1.00
N165   N     0.64773   0.84892   1.00320   0.00000  Uiso   1.00
C166   C     0.58545   0.81368   1.02228   0.00000  Uiso   1.00
C167   C     0.55847   0.75034   1.00942   0.00000  Uiso   1.00
C168   C     0.49631   0.71373   1.02108   0.00000  Uiso   1.00
C169   C     0.45973   0.73965   1.04170   0.00000  Uiso   1.00
C170   C     0.48696   0.80278   1.05612   0.00000  Uiso   1.00
C171   C     0.54936   0.83974   1.04742   0.00000  Uiso   1.00
C172   C     0.39338   0.70130   1.04282   0.00000  Uiso   1.00
N173   N     0.35965   0.72884   1.04220   0.00000  Uiso   1.00
H174   H     0.84662   0.92202   0.85642   0.00000  Uiso   1.00
H175   H     0.73735   0.88397   0.88466   0.00000  Uiso   1.00
H176   H     0.77673   0.97200   1.19257   0.00000  Uiso   1.00
H177   H     0.88594   0.00911   1.16460   0.00000  Uiso   1.00
H178   H     0.81065   0.66718   0.85043   0.00000  Uiso   1.00
H179   H     0.58686   0.73073   0.99162   0.00000  Uiso   1.00
H180   H     0.47522   0.66482   1.01169   0.00000  Uiso   1.00
H181   H     0.45863   0.82258   1.07332   0.00000  Uiso   1.00
H182   H     0.57005   0.88864   1.05666   0.00000  Uiso   1.00
C183   C     0.06171   0.01622   0.99991   0.00000  Uiso   1.00
C184   C     0.12738   0.03586   0.98237   0.00000  Uiso   1.00
C185   C     0.16396   0.02839   1.05798   0.00000  Uiso   1.00
C186   C     0.22552   0.05168   1.03851   0.00000  Uiso   1.00
C187   C     0.25196   0.08283   0.94266   0.00000  Uiso   1.00
C188   C     0.21465   0.08823   0.86568   0.00000  Uiso   1.00
C189   C     0.15331   0.06501   0.88502   0.00000  Uiso   1.00
C190   C     0.20839   0.31556   1.06467   0.00000  Uiso   1.00
N191   N     0.35656   0.11575   0.99099   0.00000  Uiso   1.00
C192   C     0.41869   0.15801   0.97878   0.00000  Uiso   1.00
C193   C     0.43765   0.22055   0.97993   0.00000  Uiso   1.00
C194   C     0.49894   0.26343   0.97677   0.00000  Uiso   1.00
C195   C     0.54294   0.24540   0.97125   0.00000  Uiso   1.00
C196   C     0.52354   0.18298   0.96663   0.00000  Uiso   1.00
C197   C     0.46234   0.13955   0.97244   0.00000  Uiso   1.00
C198   C     0.60794   0.29148   0.97291   0.00000  Uiso   1.00
N199   N     0.64922   0.27271   0.97374   0.00000  Uiso   1.00
H200   H     0.14426   0.00537   1.13298   0.00000  Uiso   1.00
H201   H     0.25374   0.04703   1.09876   0.00000  Uiso   1.00
H202   H     0.23429   0.11185   0.79094   0.00000  Uiso   1.00
H203   H     0.12532   0.07009   0.82492   0.00000  Uiso   1.00
H204   H     0.23516   0.33066   1.14000   0.00000  Uiso   1.00
H205   H     0.40410   0.23499   0.98588   0.00000  Uiso   1.00
H206   H     0.51329   0.31150   0.97931   0.00000  Uiso   1.00
H207   H     0.55718   0.16871   0.95940   0.00000  Uiso   1.00
H208   H     0.44798   0.09152   0.96960   0.00000  Uiso   1.00
C209   C     0.60512   0.31708   0.33429   0.00000  Uiso   1.00
C210   C     0.53996   0.30001   0.34323   0.00000  Uiso   1.00
C211   C     0.49792   0.26620   0.26302   0.00000  Uiso   1.00
C212   C     0.43670   0.24515   0.27874   0.00000  Uiso   1.00
C213   C     0.41619   0.25756   0.37493   0.00000  Uiso   1.00
C214   C     0.45872   0.29470   0.45211   0.00000  Uiso   1.00
C215   C     0.52006   0.31553   0.43649   0.00000  Uiso   1.00
C216   C     0.46452   0.01573   0.25772   0.00000  Uiso   1.00
N217   N     0.31440   0.18225   0.33653   0.00000  Uiso   1.00
C218   C     0.25212   0.14701   0.35561   0.00000  Uiso   1.00
C219   C     0.22514   0.08367   0.34275   0.00000  Uiso   1.00
C220   C     0.16298   0.04706   0.35441   0.00000  Uiso   1.00
C221   C     0.12640   0.07298   0.37503   0.00000  Uiso   1.00
C222   C     0.15363   0.13611   0.38945   0.00000  Uiso   1.00
C223   C     0.21603   0.17307   0.38075   0.00000  Uiso   1.00
C224   C     0.06005   0.03463   0.37615   0.00000  Uiso   1.00
N225   N     0.02632   0.06217   0.37553   0.00000  Uiso   1.00
H226   H     0.51329   0.25535   0.18975   0.00000  Uiso   1.00
H227   H     0.40402   0.21730   0.21799   0.00000  Uiso   1.00
H228   H     0.44340   0.30533   0.52590   0.00000  Uiso   1.00
H229   H     0.55261   0.34244   0.49793   0.00000  Uiso   1.00
H230   H     0.47732   0.00051   0.18376   0.00000  Uiso   1.00
H231   H     0.25353   0.06406   0.32495   0.00000  Uiso   1.00
H232   H     0.14189   0.99815   0.34502   0.00000  Uiso   1.00
H233   H     0.12530   0.15591   0.40665   0.00000  Uiso   1.00
H234   H     0.23672   0.22197   0.38999   0.00000  Uiso   1.00
C235   C     0.72838   0.34955   0.33324   0.00000  Uiso   1.00
C236   C     0.79405   0.36919   0.31570   0.00000  Uiso   1.00
C237   C     0.83063   0.36172   0.39131   0.00000  Uiso   1.00
C238   C     0.89219   0.38501   0.37184   0.00000  Uiso   1.00
C239   C     0.91863   0.41616   0.27599   0.00000  Uiso   1.00
C240   C     0.88132   0.42156   0.19901   0.00000  Uiso   1.00
C241   C     0.81998   0.39834   0.21835   0.00000  Uiso   1.00
C242   C     0.87506   0.64889   0.39800   0.00000  Uiso   1.00
N243   N     0.02323   0.44908   0.32432   0.00000  Uiso   1.00
C244   C     0.08536   0.49134   0.31211   0.00000  Uiso   1.00
C245   C     0.10432   0.55388   0.31326   0.00000  Uiso   1.00
C246   C     0.16561   0.59676   0.31010   0.00000  Uiso   1.00
C247   C     0.20961   0.57873   0.30458   0.00000  Uiso   1.00
C248   C     0.19021   0.51631   0.29996   0.00000  Uiso   1.00
C249   C     0.12901   0.47288   0.30577   0.00000  Uiso   1.00
C250   C     0.27461   0.62481   0.30624   0.00000  Uiso   1.00
N251   N     0.31589   0.60604   0.30707   0.00000  Uiso   1.00
H252   H     0.81093   0.33870   0.46631   0.00000  Uiso   1.00
H253   H     0.92041   0.38036   0.43209   0.00000  Uiso   1.00
H254   H     0.90096   0.44518   0.12427   0.00000  Uiso   1.00
H255   H     0.79199   0.40342   0.15825   0.00000  Uiso   1.00
H256   H     0.90183   0.66399   0.47333   0.00000  Uiso   1.00
H257   H     0.07077   0.56832   0.31921   0.00000  Uiso   1.00
H258   H     0.17996   0.64483   0.31264   0.00000  Uiso   1.00
H259   H     0.22385   0.50204   0.29273   0.00000  Uiso   1.00
H260   H     0.11465   0.42485   0.30293   0.00000  Uiso   1.00
C261   C     0.27178   0.65042   0.66763   0.00000  Uiso   1.00
C262   C     0.20662   0.63335   0.67657   0.00000  Uiso   1.00
C263   C     0.16458   0.59954   0.59636   0.00000  Uiso   1.00
C264   C     0.10336   0.57849   0.61208   0.00000  Uiso   1.00
C265   C     0.08285   0.59090   0.70827   0.00000  Uiso   1.00
C266   C     0.12538   0.62804   0.78545   0.00000  Uiso   1.00
C267   C     0.18672   0.64887   0.76983   0.00000  Uiso   1.00
C268   C     0.13118   0.34907   0.59106   0.00000  Uiso   1.00
N269   N     0.98106   0.51559   0.66987   0.00000  Uiso   1.00
C270   C     0.91878   0.48035   0.68895   0.00000  Uiso   1.00
C271   C     0.89180   0.41701   0.67609   0.00000  Uiso   1.00
C272   C     0.82964   0.38040   0.68775   0.00000  Uiso   1.00
C273   C     0.79306   0.40632   0.70837   0.00000  Uiso   1.00
C274   C     0.82029   0.46945   0.72279   0.00000  Uiso   1.00
C275   C     0.88269   0.50641   0.71409   0.00000  Uiso   1.00
C276   C     0.72671   0.36797   0.70949   0.00000  Uiso   1.00
N277   N     0.69298   0.39551   0.70887   0.00000  Uiso   1.00
H278   H     0.17995   0.58869   0.52309   0.00000  Uiso   1.00
H279   H     0.07068   0.55064   0.55133   0.00000  Uiso   1.00
H280   H     0.11006   0.63867   0.85924   0.00000  Uiso   1.00
H281   H     0.21927   0.67578   0.83127   0.00000  Uiso   1.00
H282   H     0.14398   0.33385   0.51710   0.00000  Uiso   1.00
H283   H     0.92019   0.39740   0.65829   0.00000  Uiso   1.00
H284   H     0.80855   0.33149   0.67836   0.00000  Uiso   1.00
H285   H     0.79196   0.48925   0.73999   0.00000  Uiso   1.00
H286   H     0.90338   0.55531   0.72333   0.00000  Uiso   1.00
C287   C     0.39504   0.68289   0.66658   0.00000  Uiso   1.00
C288   C     0.46071   0.70253   0.64904   0.00000  Uiso   1.00
C289   C     0.49729   0.69506   0.72465   0.00000  Uiso   1.00
C290   C     0.55885   0.71835   0.70518   0.00000  Uiso   1.00
C291   C     0.58529   0.74950   0.60933   0.00000  Uiso   1.00
C292   C     0.54798   0.75490   0.53235   0.00000  Uiso   1.00
C293   C     0.48664   0.73168   0.55169   0.00000  Uiso   1.00
C294   C     0.54172   0.98223   0.73134   0.00000  Uiso   1.00
N295   N     0.68989   0.78242   0.65766   0.00000  Uiso   1.00
C296   C     0.75202   0.82468   0.64545   0.00000  Uiso   1.00
C297   C     0.77098   0.88722   0.64660   0.00000  Uiso   1.00
C298   C     0.83227   0.93010   0.64344   0.00000  Uiso   1.00
C299   C     0.87627   0.91207   0.63792   0.00000  Uiso   1.00
C300   C     0.85687   0.84965   0.63330   0.00000  Uiso   1.00
C301   C     0.79567   0.80622   0.63911   0.00000  Uiso   1.00
C302   C     0.94127   0.95815   0.63958   0.00000  Uiso   1.00
N303   N     0.98255   0.93938   0.64041   0.00000  Uiso   1.00
H304   H     0.47759   0.67204   0.79965   0.00000  Uiso   1.00
H305   H     0.58707   0.71370   0.76543   0.00000  Uiso   1.00
H306   H     0.56762   0.77852   0.45761   0.00000  Uiso   1.00
H307   H     0.45865   0.73676   0.49159   0.00000  Uiso   1.00
H308   H     0.56849   0.99733   0.80667   0.00000  Uiso   1.00
H309   H     0.73743   0.90166   0.65255   0.00000  Uiso   1.00
H310   H     0.84662   0.97817   0.64598   0.00000  Uiso   1.00
H311   H     0.89051   0.83538   0.62607   0.00000  Uiso   1.00
H312   H     0.78131   0.75819   0.63627   0.00000  Uiso   1.00
C313   C     0.01625   0.95470   1.00096   0.00000  Uiso   1.00
C314   C     0.03332   0.90661   1.00990   0.00000  Uiso   1.00
C315   C     0.06713   0.89838   0.92969   0.00000  Uiso   1.00
C316   C     0.08818   0.85821   0.94541   0.00000  Uiso   1.00
C317   C     0.07577   0.82529   1.04160   0.00000  Uiso   1.00
C318   C     0.03863   0.83068   1.11878   0.00000  Uiso   1.00
C319   C     0.01780   0.87119   1.10316   0.00000  Uiso   1.00
C320   C     0.31760   0.11545   0.92439   0.00000  Uiso   1.00
N321   N     0.15108   0.79881   1.00320   0.00000  Uiso   1.00
C322   C     0.18632   0.77177   1.02228   0.00000  Uiso   1.00
C323   C     0.24966   0.80813   1.00942   0.00000  Uiso   1.00
C324   C     0.28627   0.78258   1.02108   0.00000  Uiso   1.00
C325   C     0.26035   0.72008   1.04170   0.00000  Uiso   1.00
C326   C     0.19722   0.68418   1.05612   0.00000  Uiso   1.00
C327   C     0.16026   0.70962   1.04742   0.00000  Uiso   1.00
C328   C     0.29870   0.69208   1.04282   0.00000  Uiso   1.00
N329   N     0.27116   0.63081   1.04220   0.00000  Uiso   1.00
H330   H     0.07798   0.92460   0.85642   0.00000  Uiso   1.00
H331   H     0.11603   0.85338   0.88466   0.00000  Uiso   1.00
H332   H     0.02800   0.80473   1.19257   0.00000  Uiso   1.00
H333   H     0.99089   0.87683   1.16460   0.00000  Uiso   1.00
H334   H     0.33282   0.14347   0.85043   0.00000  Uiso   1.00
H335   H     0.26927   0.85613   0.99162   0.00000  Uiso   1.00
H336   H     0.33518   0.81040   1.01169   0.00000  Uiso   1.00
H337   H     0.17742   0.63605   1.07332   0.00000  Uiso   1.00
H338   H     0.11136   0.68141   1.05666   0.00000  Uiso   1.00
C339   C     0.98378   0.04549   0.99991   0.00000  Uiso   1.00
C340   C     0.96414   0.09152   0.98237   0.00000  Uiso   1.00
C341   C     0.97161   0.13557   1.05798   0.00000  Uiso   1.00
C342   C     0.94832   0.17384   1.03851   0.00000  Uiso   1.00
C343   C     0.91717   0.16913   0.94266   0.00000  Uiso   1.00
C344   C     0.91177   0.12642   0.86568   0.00000  Uiso   1.00
C345   C     0.93499   0.08830   0.88502   0.00000  Uiso   1.00
C346   C     0.68444   0.89283   1.06467   0.00000  Uiso   1.00
N347   N     0.88425   0.24081   0.99099   0.00000  Uiso   1.00
C348   C     0.84199   0.26068   0.97878   0.00000  Uiso   1.00
C349   C     0.77945   0.21710   0.97993   0.00000  Uiso   1.00
C350   C     0.73657   0.23551   0.97677   0.00000  Uiso   1.00
C351   C     0.75460   0.29754   0.97125   0.00000  Uiso   1.00
C352   C     0.81702   0.34056   0.96663   0.00000  Uiso   1.00
C353   C     0.86045   0.32279   0.97244   0.00000  Uiso   1.00
C354   C     0.70852   0.31646   0.97291   0.00000  Uiso   1.00
N355   N     0.72729   0.37651   0.97374   0.00000  Uiso   1.00
H356   H     0.99463   0.13889   1.13298   0.00000  Uiso   1.00
H357   H     0.95297   0.20671   1.09876   0.00000  Uiso   1.00
H358   H     0.88815   0.12244   0.79094   0.00000  Uiso   1.00
H359   H     0.92991   0.05523   0.82492   0.00000  Uiso   1.00
H360   H     0.66934   0.90450   1.14000   0.00000  Uiso   1.00
H361   H     0.76501   0.16911   0.98588   0.00000  Uiso   1.00
H362   H     0.68850   0.20179   0.97931   0.00000  Uiso   1.00
H363   H     0.83129   0.38847   0.95940   0.00000  Uiso   1.00
H364   H     0.90848   0.35646   0.96960   0.00000  Uiso   1.00
C365   C     0.68292   0.28803   0.33429   0.00000  Uiso   1.00
C366   C     0.69999   0.23994   0.34323   0.00000  Uiso   1.00
C367   C     0.73380   0.23171   0.26302   0.00000  Uiso   1.00
C368   C     0.75485   0.19154   0.27874   0.00000  Uiso   1.00
C369   C     0.74244   0.15862   0.37493   0.00000  Uiso   1.00
C370   C     0.70530   0.16401   0.45211   0.00000  Uiso   1.00
C371   C     0.68447   0.20452   0.43649   0.00000  Uiso   1.00
C372   C     0.98427   0.44878   0.25772   0.00000  Uiso   1.00
N373   N     0.81775   0.13214   0.33653   0.00000  Uiso   1.00
C374   C     0.85299   0.10510   0.35561   0.00000  Uiso   1.00
C375   C     0.91633   0.14146   0.34275   0.00000  Uiso   1.00
C376   C     0.95294   0.11591   0.35441   0.00000  Uiso   1.00
C377   C     0.92702   0.05341   0.37503   0.00000  Uiso   1.00
C378   C     0.86389   0.01751   0.38945   0.00000  Uiso   1.00
C379   C     0.82693   0.04295   0.38075   0.00000  Uiso   1.00
C380   C     0.96537   0.02541   0.37615   0.00000  Uiso   1.00
N381   N     0.93783   0.96414   0.37553   0.00000  Uiso   1.00
H382   H     0.74465   0.25793   0.18975   0.00000  Uiso   1.00
H383   H     0.78270   0.18671   0.21799   0.00000  Uiso   1.00
H384   H     0.69467   0.13806   0.52590   0.00000  Uiso   1.00
H385   H     0.65756   0.21016   0.49793   0.00000  Uiso   1.00
H386   H     0.99949   0.47680   0.18376   0.00000  Uiso   1.00
H387   H     0.93594   0.18946   0.32495   0.00000  Uiso   1.00
H388   H     0.00185   0.14373   0.34502   0.00000  Uiso   1.00
H389   H     0.84409   0.96938   0.40665   0.00000  Uiso   1.00
H390   H     0.77803   0.01474   0.38999   0.00000  Uiso   1.00
C391   C     0.65045   0.37882   0.33324   0.00000  Uiso   1.00
C392   C     0.63081   0.42485   0.31570   0.00000  Uiso   1.00
C393   C     0.63828   0.46890   0.39131   0.00000  Uiso   1.00
C394   C     0.61499   0.50717   0.37184   0.00000  Uiso   1.00
C395   C     0.58384   0.50246   0.27599   0.00000  Uiso   1.00
C396   C     0.57844   0.45975   0.19901   0.00000  Uiso   1.00
C397   C     0.60166   0.42163   0.21835   0.00000  Uiso   1.00
C398   C     0.35111   0.22616   0.39800   0.00000  Uiso   1.00
N399   N     0.55092   0.57414   0.32432   0.00000  Uiso   1.00
C400   C     0.50866   0.59401   0.31211   0.00000  Uiso   1.00
C401   C     0.44612   0.55043   0.31326   0.00000  Uiso   1.00
C402   C     0.40324   0.56884   0.31010   0.00000  Uiso   1.00
C403   C     0.42127   0.63087   0.30458   0.00000  Uiso   1.00
C404   C     0.48369   0.67389   0.29996   0.00000  Uiso   1.00
C405   C     0.52712   0.65612   0.30577   0.00000  Uiso   1.00
C406   C     0.37519   0.64979   0.30624   0.00000  Uiso   1.00
N407   N     0.39396   0.70984   0.30707   0.00000  Uiso   1.00
H408   H     0.66130   0.47222   0.46631   0.00000  Uiso   1.00
H409   H     0.61964   0.54004   0.43209   0.00000  Uiso   1.00
H410   H     0.55482   0.45577   0.12427   0.00000  Uiso   1.00
H411   H     0.59658   0.38856   0.15825   0.00000  Uiso   1.00
H412   H     0.33601   0.23783   0.47333   0.00000  Uiso   1.00
H413   H     0.43168   0.50244   0.31921   0.00000  Uiso   1.00
H414   H     0.35517   0.53512   0.31264   0.00000  Uiso   1.00
H415   H     0.49796   0.72180   0.29273   0.00000  Uiso   1.00
H416   H     0.57515   0.68979   0.30293   0.00000  Uiso   1.00
C417   C     0.34958   0.62137   0.66763   0.00000  Uiso   1.00
C418   C     0.36665   0.57328   0.67657   0.00000  Uiso   1.00
C419   C     0.40046   0.56505   0.59636   0.00000  Uiso   1.00
C420   C     0.42151   0.52488   0.61208   0.00000  Uiso   1.00
C421   C     0.40910   0.49196   0.70827   0.00000  Uiso   1.00
C422   C     0.37196   0.49735   0.78545   0.00000  Uiso   1.00
C423   C     0.35113   0.53786   0.76983   0.00000  Uiso   1.00
C424   C     0.65093   0.78212   0.59106   0.00000  Uiso   1.00
N425   N     0.48441   0.46548   0.66987   0.00000  Uiso   1.00
C426   C     0.51965   0.43844   0.68895   0.00000  Uiso   1.00
C427   C     0.58299   0.47480   0.67609   0.00000  Uiso   1.00
C428   C     0.61960   0.44925   0.68775   0.00000  Uiso   1.00
C429   C     0.59368   0.38675   0.70837   0.00000  Uiso   1.00
C430   C     0.53055   0.35085   0.72279   0.00000  Uiso   1.00
C431   C     0.49359   0.37629   0.71409   0.00000  Uiso   1.00
C432   C     0.63203   0.35875   0.70949   0.00000  Uiso   1.00
N433   N     0.60449   0.29748   0.70887   0.00000  Uiso   1.00
H434   H     0.41131   0.59127   0.52309   0.00000  Uiso   1.00
H435   H     0.44936   0.52005   0.55133   0.00000  Uiso   1.00
H436   H     0.36133   0.47140   0.85924   0.00000  Uiso   1.00
H437   H     0.32422   0.54350   0.83127   0.00000  Uiso   1.00
H438   H     0.66615   0.81014   0.51710   0.00000  Uiso   1.00
H439   H     0.60260   0.52280   0.65829   0.00000  Uiso   1.00
H440   H     0.66851   0.47707   0.67836   0.00000  Uiso   1.00
H441   H     0.51075   0.30272   0.73999   0.00000  Uiso   1.00
H442   H     0.44469   0.34808   0.72333   0.00000  Uiso   1.00
C443   C     0.31711   0.71216   0.66658   0.00000  Uiso   1.00
C444   C     0.29747   0.75819   0.64904   0.00000  Uiso   1.00
C445   C     0.30494   0.80224   0.72465   0.00000  Uiso   1.00
C446   C     0.28165   0.84051   0.70518   0.00000  Uiso   1.00
C447   C     0.25050   0.83580   0.60933   0.00000  Uiso   1.00
C448   C     0.24510   0.79309   0.53235   0.00000  Uiso   1.00
C449   C     0.26832   0.75497   0.55169   0.00000  Uiso   1.00
C450   C     0.01777   0.55950   0.73134   0.00000  Uiso   1.00
N451   N     0.21758   0.90748   0.65766   0.00000  Uiso   1.00
C452   C     0.17532   0.92735   0.64545   0.00000  Uiso   1.00
C453   C     0.11278   0.88377   0.64660   0.00000  Uiso   1.00
C454   C     0.06990   0.90218   0.64344   0.00000  Uiso   1.00
C455   C     0.08793   0.96421   0.63792   0.00000  Uiso   1.00
C456   C     0.15035   0.00723   0.63330   0.00000  Uiso   1.00
C457   C     0.19378   0.98946   0.63911   0.00000  Uiso   1.00
C458   C     0.04185   0.98313   0.63958   0.00000  Uiso   1.00
N459   N     0.06062   0.04318   0.64041   0.00000  Uiso   1.00
H460   H     0.32796   0.80556   0.79965   0.00000  Uiso   1.00
H461   H     0.28630   0.87338   0.76543   0.00000  Uiso   1.00
H462   H     0.22148   0.78911   0.45761   0.00000  Uiso   1.00
H463   H     0.26324   0.72190   0.49159   0.00000  Uiso   1.00
H464   H     0.00267   0.57117   0.80667   0.00000  Uiso   1.00
H465   H     0.09834   0.83578   0.65255   0.00000  Uiso   1.00
H466   H     0.02183   0.86846   0.64598   0.00000  Uiso   1.00
H467   H     0.16462   0.05514   0.62607   0.00000  Uiso   1.00
H468   H     0.24181   0.02313   0.63627   0.00000  Uiso   1.00
loop_
_geom_bond_atom_site_label_1
_geom_bond_atom_site_label_2
_geom_bond_distance
_geom_bond_site_symmetry_2
_ccdc_geom_bond_type
C1     C2      1.496   .     S
C1     C183    1.412   .     S
C1     C339    1.409   1_455 D
C2     C3      1.407   .     D
C2     C7      1.408   .     S
C3     C4      1.388   .     S
C3     H18     1.088   .     S
C4     C5      1.412   .     D
C4     H19     1.090   .     S
C5     C6      1.408   .     S
C5     C190    1.466   .     S
C6     C7      1.391   .     D
C6     H20     1.090   .     S
C7     H21     1.088   .     S
C8     H22     1.115   .     S
C8     C343    1.467   .     S
C8     N347    1.295   .     D
N9     C10     1.400   .     S
N9     C190    1.295   .     D
C10    C11     1.413   .     D
C10    C15     1.414   .     S
C11    C12     1.387   .     S
C11    H23     1.089   .     S
C12    C13     1.410   .     D
C12    H24     1.090   .     S
C13    C14     1.410   .     S
C13    C16     1.471   .     S
C14    C15     1.390   .     D
C14    H25     1.090   .     S
C15    H26     1.090   .     S
C16    N17     1.355   .     D
C16    N329    1.355   .     S
N17    C172    1.355   .     S
C27    C28     1.505   .     S
C27    C157    1.409   .     D
C27    C313    1.412   1_655 S
C28    C29     1.408   .     D
C28    C33     1.410   .     S
C29    C30     1.394   .     S
C29    H44     1.089   .     S
C30    C31     1.412   .     D
C30    H45     1.090   .     S
C31    C32     1.410   .     S
C31    C164    1.467   .     S
C32    C33     1.389   .     D
C32    H46     1.091   .     S
C33    H47     1.089   .     S
C34    H48     1.115   .     S
C34    C317    1.466   .     S
C34    N321    1.295   .     D
N35    C36     1.409   .     S
N35    C164    1.295   .     D
C36    C37     1.416   .     D
C36    C41     1.411   .     S
C37    C38     1.389   .     S
C37    H49     1.090   .     S
C38    C39     1.411   .     D
C38    H50     1.090   .     S
C39    C40     1.412   .     S
C39    C42     1.476   .     S
C40    C41     1.392   .     D
C40    H51     1.090   .     S
C41    H52     1.089   .     S
C42    N43     1.357   .     S
C42    N355    1.358   .     D
N43    C198    1.358   .     D
C53    C54     1.496   .     S
C53    C391    1.409   .     D
C53    C235    1.412   .     S
C54    C55     1.407   .     D
C54    C59     1.408   .     S
C55    C56     1.388   .     S
C55    H70     1.088   .     S
C56    C57     1.412   .     D
C56    H71     1.090   .     S
C57    C58     1.408   .     S
C57    C242    1.466   .     S
C58    C59     1.391   .     D
C58    H72     1.090   .     S
C59    H73     1.088   .     S
C60    H74     1.115   .     S
C60    C395    1.467   .     S
C60    N399    1.295   .     D
N61    C62     1.400   .     S
N61    C242    1.295   .     D
C62    C63     1.413   .     D
C62    C67     1.414   .     S
C63    C64     1.387   .     S
C63    H75     1.089   .     S
C64    C65     1.410   .     D
C64    H76     1.090   .     S
C65    C66     1.410   .     S
C65    C68     1.471   .     S
C66    C67     1.390   .     D
C66    H77     1.090   1_655 S
C67    H78     1.090   .     S
C68    N381    1.355   .     D
C68    N69     1.355   1_655 S
N69    C68     1.355   1_455 S
N69    C224    1.355   1_565 D
H77    C66     1.090   1_455 S
C79    C80     1.505   .     S
C79    C209    1.409   .     D
C79    C365    1.412   .     S
C80    C81     1.408   .     S
C80    C85     1.410   .     D
C81    C82     1.394   .     D
C81    H96     1.089   .     S
C82    C83     1.412   .     S
C82    H97     1.090   .     S
C83    C84     1.410   .     D
C83    C216    1.467   .     S
C84    C85     1.389   .     S
C84    H98     1.091   .     S
C85    H99     1.089   .     S
C86    H100    1.115   .     S
C86    C369    1.466   .     S
C86    N373    1.295   .     D
N87    C88     1.409   .     S
N87    C216    1.295   1_565 D
C88    C89     1.416   .     S
C88    C93     1.411   .     D
C89    C90     1.389   .     D
C89    H101    1.090   .     S
C90    C91     1.411   .     S
C90    H102    1.090   .     S
C91    C92     1.412   .     D
C91    C94     1.476   .     S
C92    C93     1.392   .     S
C92    H103    1.090   .     S
C93    H104    1.089   .     S
C94    N95     1.357   .     S
C94    N407    1.358   .     D
N95    C250    1.358   .     D
C105   C106    1.496   .     S
C105   C443    1.409   .     S
C105   C287    1.412   .     D
C106   C107    1.407   .     S
C106   C111    1.408   .     D
C107   C108    1.388   .     D
C107   H122    1.088   .     S
C108   C109    1.412   .     S
C108   H123    1.090   .     S
C109   C110    1.408   .     D
C109   C294    1.466   .     S
C110   C111    1.391   .     S
C110   H124    1.090   .     S
C111   H125    1.088   .     S
C112   H126    1.115   .     S
C112   C447    1.467   .     S
C112   N451    1.295   .     D
N113   C114    1.400   .     S
N113   C294    1.295   1_545 D
C114   C115    1.413   .     S
C114   C119    1.414   .     D
C115   C116    1.387   .     D
C115   H127    1.089   .     S
C116   C117    1.410   .     S
C116   H128    1.090   .     S
C117   C118    1.410   .     D
C117   C120    1.471   .     S
C118   C119    1.390   .     S
C118   H129    1.090   .     S
C119   H130    1.090   .     S
C120   N121    1.355   .     S
C120   N433    1.355   .     D
N121   C276    1.355   .     D
C131   C132    1.505   .     S
C131   C261    1.409   .     S
C131   C417    1.412   .     D
C132   C133    1.408   .     D
C132   C137    1.410   .     S
C133   C134    1.394   .     S
C133   H148    1.089   .     S
C134   C135    1.412   .     D
C134   H149    1.090   .     S
C135   C136    1.410   .     S
C135   C268    1.467   .     S
C136   C137    1.389   .     D
C136   H150    1.091   .     S
C137   H151    1.089   .     S
C138   H152    1.115   .     S
C138   C421    1.466   .     S
C138   N425    1.295   .     D
N139   C140    1.409   .     S
N139   C268    1.295   .     D
C140   C141    1.416   .     D
C140   C145    1.411   .     S
C141   C142    1.389   .     S
C141   H153    1.090   .     S
C142   C143    1.411   .     D
C142   H154    1.090   .     S
C143   C146    1.476   .     S
C143   C144    1.412   1_455 S
C144   H155    1.090   .     S
C144   C143    1.412   1_655 S
C144   C145    1.392   1_655 D
C145   C144    1.392   1_455 D
C145   H156    1.089   1_455 S
C146   N459    1.358   .     D
C146   N147    1.357   1_455 S
N147   C146    1.357   1_655 S
N147   C302    1.358   1_545 D
H156   C145    1.089   1_655 S
C157   C158    1.496   .     S
C157   C339    1.412   1_565 S
C158   C159    1.407   .     D
C158   C163    1.408   .     S
C159   C160    1.388   .     S
C159   H174    1.088   .     S
C160   C161    1.412   .     D
C160   H175    1.090   .     S
C161   C162    1.408   .     S
C161   C346    1.466   .     S
C162   C163    1.391   .     D
C162   H176    1.090   .     S
C163   H177    1.088   1_565 S
C164   H178    1.115   .     S
N165   C166    1.400   .     S
N165   C346    1.295   .     D
C166   C167    1.413   .     D
C166   C171    1.414   .     S
C167   C168    1.387   .     S
C167   H179    1.089   .     S
C168   C169    1.410   .     D
C168   H180    1.090   .     S
C169   C170    1.410   .     S
C169   C172    1.471   .     S
C170   C171    1.390   .     D
C170   H181    1.090   .     S
C171   H182    1.090   .     S
C172   N173    1.355   .     D
N173   C328    1.355   .     S
H177   C163    1.088   1_545 S
C183   C184    1.505   .     S
C183   C313    1.409   1_545 D
C184   C185    1.408   .     S
C184   C189    1.410   .     D
C185   C186    1.394   .     D
C185   H200    1.089   .     S
C186   C187    1.412   .     S
C186   H201    1.090   .     S
C187   C188    1.410   .     D
C187   C320    1.467   .     S
C188   C189    1.389   .     S
C188   H202    1.091   .     S
C189   H203    1.089   .     S
C190   H204    1.115   .     S
N191   C192    1.409   .     S
N191   C320    1.295   .     D
C192   C193    1.416   .     D
C192   C197    1.411   .     S
C193   C194    1.389   .     S
C193   H205    1.090   .     S
C194   C195    1.411   .     D
C194   H206    1.090   .     S
C195   C196    1.412   .     S
C195   C198    1.476   .     S
C196   C197    1.392   .     D
C196   H207    1.090   .     S
C197   H208    1.089   .     S
C198   N199    1.357   .     S
N199   C354    1.358   .     D
C209   C210    1.496   .     S
C209   C391    1.412   .     S
C210   C211    1.407   .     S
C210   C215    1.408   .     D
C211   C212    1.388   .     D
C211   H226    1.088   .     S
C212   C213    1.412   .     S
C212   H227    1.090   .     S
C213   C214    1.408   .     D
C213   C398    1.466   .     S
C214   C215    1.391   .     S
C214   H228    1.090   .     S
C215   H229    1.088   .     S
C216   H230    1.115   .     S
C216   N87     1.295   1_545 D
N217   C218    1.400   .     S
N217   C398    1.295   .     D
C218   C219    1.413   .     S
C218   C223    1.414   .     D
C219   C220    1.387   .     D
C219   H231    1.089   .     S
C220   C221    1.410   .     S
C220   H232    1.090   1_545 S
C221   C222    1.410   .     D
C221   C224    1.471   .     S
C222   C223    1.390   .     S
C222   H233    1.090   .     S
C223   H234    1.090   .     S
C224   N225    1.355   .     S
C224   N69     1.355   1_545 D
N225   C380    1.355   1_455 D
H232   C220    1.090   1_565 S
C235   C236    1.505   .     S
C235   C365    1.409   .     D
C236   C237    1.408   .     S
C236   C241    1.410   .     D
C237   C238    1.394   .     D
C237   H252    1.089   .     S
C238   C239    1.412   .     S
C238   H253    1.090   .     S
C239   C240    1.410   .     D
C239   C372    1.467   .     S
C240   C241    1.389   .     S
C240   H254    1.091   .     S
C241   H255    1.089   .     S
C242   H256    1.115   .     S
N243   C244    1.409   .     S
N243   C372    1.295   1_455 D
C244   C245    1.416   .     S
C244   C249    1.411   .     D
C245   C246    1.389   .     D
C245   H257    1.090   .     S
C246   C247    1.411   .     S
C246   H258    1.090   .     S
C247   C248    1.412   .     D
C247   C250    1.476   .     S
C248   C249    1.392   .     S
C248   H259    1.090   .     S
C249   H260    1.089   .     S
C250   N251    1.357   .     S
N251   C406    1.358   .     D
C261   C262    1.496   .     S
C261   C443    1.412   .     D
C262   C263    1.407   .     D
C262   C267    1.408   .     S
C263   C264    1.388   .     S
C263   H278    1.088   .     S
C264   C265    1.412   .     D
C264   H279    1.090   .     S
C265   C266    1.408   .     S
C265   C450    1.466   .     S
C266   C267    1.391   .     D
C266   H280    1.090   .     S
C267   H281    1.088   .     S
C268   H282    1.115   .     S
N269   C270    1.400   .     S
N269   C450    1.295   1_655 D
C270   C271    1.413   .     D
C270   C275    1.414   .     S
C271   C272    1.387   .     S
C271   H283    1.089   .     S
C272   C273    1.410   .     D
C272   H284    1.090   .     S
C273   C274    1.410   .     S
C273   C276    1.471   .     S
C274   C275    1.390   .     D
C274   H285    1.090   .     S
C275   H286    1.090   .     S
C276   N277    1.355   .     S
N277   C432    1.355   .     D
C287   C288    1.505   .     S
C287   C417    1.409   .     S
C288   C289    1.408   .     S
C288   C293    1.410   .     D
C289   C290    1.394   .     D
C289   H304    1.089   .     S
C290   C291    1.412   .     S
C290   H305    1.090   .     S
C291   C292    1.410   .     D
C291   C424    1.467   .     S
C292   C293    1.389   .     S
C292   H306    1.091   .     S
C293   H307    1.089   .     S
C294   H308    1.115   .     S
C294   N113    1.295   1_565 D
N295   C296    1.409   .     S
N295   C424    1.295   .     D
C296   C297    1.416   .     S
C296   C301    1.411   .     D
C297   C298    1.389   .     D
C297   H309    1.090   .     S
C298   C299    1.411   .     S
C298   H310    1.090   .     S
C299   C300    1.412   .     D
C299   C302    1.476   .     S
C300   C301    1.392   .     S
C300   H311    1.090   .     S
C301   H312    1.089   .     S
C302   N303    1.357   .     S
C302   N147    1.358   1_565 D
N303   C458    1.358   1_655 D
C313   C314    1.496   .     S
C313   C27     1.412   1_455 S
C313   C183    1.409   1_565 D
C314   C315    1.407   .     S
C314   C319    1.408   .     D
C315   C316    1.388   .     D
C315   H330    1.088   .     S
C316   C317    1.412   .     S
C316   H331    1.090   .     S
C317   C318    1.408   .     D
C318   C319    1.391   .     S
C318   H332    1.090   .     S
C319   H333    1.088   1_455 S
C320   H334    1.115   .     S
N321   C322    1.400   .     S
C322   C323    1.413   .     S
C322   C327    1.414   .     D
C323   C324    1.387   .     D
C323   H335    1.089   .     S
C324   C325    1.410   .     S
C324   H336    1.090   .     S
C325   C326    1.410   .     D
C325   C328    1.471   .     S
C326   C327    1.390   .     S
C326   H337    1.090   .     S
C327   H338    1.090   .     S
C328   N329    1.355   .     D
H333   C319    1.088   1_655 S
C339   C340    1.505   .     S
C339   C1      1.409   1_655 D
C339   C157    1.412   1_545 S
C340   C341    1.408   .     D
C340   C345    1.410   .     S
C341   C342    1.394   .     S
C341   H356    1.089   .     S
C342   C343    1.412   .     D
C342   H357    1.090   .     S
C343   C344    1.410   .     S
C344   C345    1.389   .     D
C344   H358    1.091   .     S
C345   H359    1.089   .     S
C346   H360    1.115   .     S
N347   C348    1.409   .     S
C348   C349    1.416   .     S
C348   C353    1.411   .     D
C349   C350    1.389   .     D
C349   H361    1.090   .     S
C350   C351    1.411   .     S
C350   H362    1.090   .     S
C351   C352    1.412   .     D
C351   C354    1.476   .     S
C352   C353    1.392   .     S
C352   H363    1.090   .     S
C353   H364    1.089   .     S
C354   N355    1.357   .     S
C365   C366    1.496   .     S
C366   C367    1.407   .     D
C366   C371    1.408   .     S
C367   C368    1.388   .     S
C367   H382    1.088   .     S
C368   C369    1.412   .     D
C368   H383    1.090   .     S
C369   C370    1.408   .     S
C370   C371    1.391   .     D
C370   H384    1.090   .     S
C371   H385    1.088   .     S
C372   H386    1.115   .     S
C372   N243    1.295   1_655 D
N373   C374    1.400   .     S
C374   C375    1.413   .     D
C374   C379    1.414   .     S
C375   C376    1.387   .     S
C375   H387    1.089   .     S
C376   C377    1.410   .     D
C376   H388    1.090   1_655 S
C377   C378    1.410   .     S
C377   C380    1.471   .     S
C378   C379    1.390   .     D
C378   H389    1.090   1_545 S
C379   H390    1.090   .     S
C380   N225    1.355   1_655 D
C380   N381    1.355   1_545 S
N381   C380    1.355   1_565 S
H388   C376    1.090   1_455 S
H389   C378    1.090   1_565 S
C391   C392    1.505   .     S
C392   C393    1.408   .     D
C392   C397    1.410   .     S
C393   C394    1.394   .     S
C393   H408    1.089   .     S
C394   C395    1.412   .     D
C394   H409    1.090   .     S
C395   C396    1.410   .     S
C396   C397    1.389   .     D
C396   H410    1.091   .     S
C397   H411    1.089   .     S
C398   H412    1.115   .     S
N399   C400    1.409   .     S
C400   C401    1.416   .     D
C400   C405    1.411   .     S
C401   C402    1.389   .     S
C401   H413    1.090   .     S
C402   C403    1.411   .     D
C402   H414    1.090   .     S
C403   C404    1.412   .     S
C403   C406    1.476   .     S
C404   C405    1.392   .     D
C404   H415    1.090   .     S
C405   H416    1.089   .     S
C406   N407    1.357   .     S
C417   C418    1.496   .     S
C418   C419    1.407   .     S
C418   C423    1.408   .     D
C419   C420    1.388   .     D
C419   H434    1.088   .     S
C420   C421    1.412   .     S
C420   H435    1.090   .     S
C421   C422    1.408   .     D
C422   C423    1.391   .     S
C422   H436    1.090   .     S
C423   H437    1.088   .     S
C424   H438    1.115   .     S
N425   C426    1.400   .     S
C426   C427    1.413   .     S
C426   C431    1.414   .     D
C427   C428    1.387   .     D
C427   H439    1.089   .     S
C428   C429    1.410   .     S
C428   H440    1.090   .     S
C429   C430    1.410   .     D
C429   C432    1.471   .     S
C430   C431    1.390   .     S
C430   H441    1.090   .     S
C431   H442    1.090   .     S
C432   N433    1.355   .     S
C443   C444    1.505   .     S
C444   C445    1.408   .     D
C444   C449    1.410   .     S
C445   C446    1.394   .     S
C445   H460    1.089   .     S
C446   C447    1.412   .     D
C446   H461    1.090   .     S
C447   C448    1.410   .     S
C448   C449    1.389   .     D
C448   H462    1.091   .     S
C449   H463    1.089   .     S
C450   H464    1.115   .     S
C450   N269    1.295   1_455 D
N451   C452    1.409   .     S
C452   C453    1.416   .     D
C452   C457    1.411   .     S
C453   C454    1.389   .     S
C453   H465    1.090   .     S
C454   C455    1.411   .     D
C454   H466    1.090   .     S
C455   C458    1.476   .     S
C455   C456    1.412   1_565 S
C456   H467    1.090   .     S
C456   C455    1.412   1_545 S
C456   C457    1.392   1_545 D
C457   C456    1.392   1_565 D
C457   H468    1.089   1_565 S
C458   N303    1.358   1_455 D
C458   N459    1.357   1_565 S
N459   C458    1.357   1_545 S
H468   C457    1.089   1_545 S
