data_958
_audit_creation_date              2023-09-08
_audit_creation_method            'Materials Studio'
_symmetry_space_group_name_H-M    'P1'
_symmetry_Int_Tables_number       1
_symmetry_cell_setting            triclinic
loop_
_symmetry_equiv_pos_as_xyz
  x,y,z
_cell_length_a                    37.6562
_cell_length_b                    37.4455
_cell_length_c                    7.2200
_cell_angle_alpha                 90.0000
_cell_angle_beta                  90.0000
_cell_angle_gamma                 120.0000
loop_
_atom_site_label
_atom_site_type_symbol
_atom_site_fract_x
_atom_site_fract_y
_atom_site_fract_z
_atom_site_U_iso_or_equiv
_atom_site_adp_type
_atom_site_occupancy
C1     C    -0.06440   0.22200   0.16010   0.00000  Uiso   1.00
C2     C    -0.04000   0.21030   0.05860   0.00000  Uiso   1.00
C3     C     0.00280   0.23360   0.06710   0.00000  Uiso   1.00
C4     C     0.02200   0.26920   0.17830   0.00000  Uiso   1.00
C5     C    -0.00220   0.28110   0.27780   0.00000  Uiso   1.00
C6     C    -0.04500   0.25760   0.27040   0.00000  Uiso   1.00
N7     N     0.06580   0.29480   0.18670   0.00000  Uiso   1.00
C8     C     0.09210   0.28250   0.15790   0.00000  Uiso   1.00
H9     H    -0.05420   0.18340  -0.02990   0.00000  Uiso   1.00
H10    H     0.02070   0.22450  -0.01660   0.00000  Uiso   1.00
H11    H     0.01240   0.30860   0.36270   0.00000  Uiso   1.00
H12    H    -0.06320   0.26690   0.35220   0.00000  Uiso   1.00
C13    C     0.32350   0.19340   0.14090   0.00000  Uiso   1.00
C14    C     0.29840   0.21420   0.13850   0.00000  Uiso   1.00
C15    C     0.31290   0.25290   0.22370   0.00000  Uiso   1.00
C16    C     0.28910   0.27200   0.22550   0.00000  Uiso   1.00
C17    C     0.25030   0.25290   0.14080   0.00000  Uiso   1.00
C18    C     0.23560   0.21440   0.05770   0.00000  Uiso   1.00
N19    N     0.22420   0.27070   0.14150   0.00000  Uiso   1.00
C20    C     0.23650   0.30970   0.16110   0.00000  Uiso   1.00
H21    H     0.34230   0.26820   0.29310   0.00000  Uiso   1.00
H22    H     0.30060   0.30100   0.29720   0.00000  Uiso   1.00
N23    N     0.24850   0.45330   0.14920   0.00000  Uiso   1.00
C24    C     0.20980   0.42720   0.17560   0.00000  Uiso   1.00
C25    C     0.25940   0.19530   0.05510   0.00000  Uiso   1.00
C26    C    -0.13340   0.21660   0.14160   0.00000  Uiso   1.00
C27    C    -0.10980   0.19720   0.15140   0.00000  Uiso   1.00
C28    C    -0.12960   0.65400   0.15520   0.00000  Uiso   1.00
C29    C     0.32750   0.63010   0.14940   0.00000  Uiso   1.00
C30    C     0.30440   0.65010   0.14430   0.00000  Uiso   1.00
C31    C     0.26720   0.49730   0.15050   0.00000  Uiso   1.00
C32    C     0.25010   0.51770   0.24670   0.00000  Uiso   1.00
C33    C     0.26960   0.56070   0.24600   0.00000  Uiso   1.00
C34    C     0.30680   0.58430   0.15080   0.00000  Uiso   1.00
C35    C     0.32400   0.56370   0.05650   0.00000  Uiso   1.00
C36    C     0.30450   0.52060   0.05770   0.00000  Uiso   1.00
H37    H     0.20570   0.19950  -0.00660   0.00000  Uiso   1.00
H38    H     0.24720   0.66590  -0.01460   0.00000  Uiso   1.00
H39    H    -0.11800   0.24980   0.13080   0.00000  Uiso   1.00
H40    H    -0.11160   0.63890   0.16910   0.00000  Uiso   1.00
H41    H     0.27130   0.63180   0.14390   0.00000  Uiso   1.00
H42    H     0.22210   0.50060   0.32570   0.00000  Uiso   1.00
H43    H     0.25580   0.57550   0.32260   0.00000  Uiso   1.00
H44    H    -0.14770   0.58080  -0.02050   0.00000  Uiso   1.00
H45    H     0.31800   0.50520  -0.01590   0.00000  Uiso   1.00
C46    C     0.19440   0.38240   0.17230   0.00000  Uiso   1.00
C47    C     0.22160   0.36710   0.16870   0.00000  Uiso   1.00
C48    C     0.20690   0.32460   0.16260   0.00000  Uiso   1.00
C49    C     0.16430   0.29710   0.15890   0.00000  Uiso   1.00
C50    C     0.13670   0.31200   0.16400   0.00000  Uiso   1.00
C51    C     0.15200   0.35470   0.17190   0.00000  Uiso   1.00
H52    H     0.08170   0.25020   0.13350   0.00000  Uiso   1.00
H53    H     0.18810   0.43790   0.19310   0.00000  Uiso   1.00
H54    H     0.25430   0.38830   0.17070   0.00000  Uiso   1.00
H55    H     0.13090   0.36640   0.17470   0.00000  Uiso   1.00
H56    H     0.26890   0.33210   0.17150   0.00000  Uiso   1.00
H57    H     0.15280   0.26420   0.15350   0.00000  Uiso   1.00
C58    C     0.43560   0.22200   0.16010   0.00000  Uiso   1.00
C59    C     0.46000   0.21030   0.05860   0.00000  Uiso   1.00
C60    C     0.50280   0.23360   0.06710   0.00000  Uiso   1.00
C61    C     0.52200   0.26920   0.17830   0.00000  Uiso   1.00
C62    C     0.49780   0.28110   0.27780   0.00000  Uiso   1.00
C63    C     0.45500   0.25760   0.27040   0.00000  Uiso   1.00
N64    N     0.56580   0.29480   0.18670   0.00000  Uiso   1.00
C65    C     0.59210   0.28250   0.15790   0.00000  Uiso   1.00
H66    H     0.44580   0.18340  -0.02990   0.00000  Uiso   1.00
H67    H     0.52070   0.22450  -0.01660   0.00000  Uiso   1.00
H68    H     0.51240   0.30860   0.36270   0.00000  Uiso   1.00
H69    H     0.43680   0.26690   0.35220   0.00000  Uiso   1.00
C70    C     0.82350   0.19340   0.14090   0.00000  Uiso   1.00
C71    C     0.79840   0.21420   0.13850   0.00000  Uiso   1.00
C72    C     0.81290   0.25290   0.22370   0.00000  Uiso   1.00
C73    C     0.78910   0.27200   0.22550   0.00000  Uiso   1.00
C74    C     0.75030   0.25290   0.14080   0.00000  Uiso   1.00
C75    C     0.73560   0.21440   0.05770   0.00000  Uiso   1.00
N76    N     0.72420   0.27070   0.14150   0.00000  Uiso   1.00
C77    C     0.73650   0.30970   0.16110   0.00000  Uiso   1.00
H78    H     0.84230   0.26820   0.29310   0.00000  Uiso   1.00
H79    H     0.80060   0.30100   0.29720   0.00000  Uiso   1.00
N80    N     0.74850   0.45330   0.14920   0.00000  Uiso   1.00
C81    C     0.70980   0.42720   0.17560   0.00000  Uiso   1.00
C82    C     0.75940   0.19530   0.05510   0.00000  Uiso   1.00
C83    C     0.36660   0.21660   0.14160   0.00000  Uiso   1.00
C84    C     0.39020   0.19720   0.15140   0.00000  Uiso   1.00
C85    C     0.37040   0.65400   0.15520   0.00000  Uiso   1.00
C86    C     0.82750   0.63010   0.14940   0.00000  Uiso   1.00
C87    C     0.80440   0.65010   0.14430   0.00000  Uiso   1.00
C88    C     0.76720   0.49730   0.15050   0.00000  Uiso   1.00
C89    C     0.75010   0.51770   0.24670   0.00000  Uiso   1.00
C90    C     0.76960   0.56070   0.24600   0.00000  Uiso   1.00
C91    C     0.80680   0.58430   0.15080   0.00000  Uiso   1.00
C92    C     0.82400   0.56370   0.05650   0.00000  Uiso   1.00
C93    C     0.80450   0.52060   0.05770   0.00000  Uiso   1.00
H94    H     0.70570   0.19950  -0.00660   0.00000  Uiso   1.00
H95    H     0.74720   0.66590  -0.01460   0.00000  Uiso   1.00
H96    H     0.38200   0.24980   0.13080   0.00000  Uiso   1.00
H97    H     0.38840   0.63890   0.16910   0.00000  Uiso   1.00
H98    H     0.77130   0.63180   0.14390   0.00000  Uiso   1.00
H99    H     0.72210   0.50060   0.32570   0.00000  Uiso   1.00
H100   H     0.75580   0.57550   0.32260   0.00000  Uiso   1.00
H101   H     0.35230   0.58080  -0.02050   0.00000  Uiso   1.00
H102   H     0.81800   0.50520  -0.01590   0.00000  Uiso   1.00
C103   C     0.69440   0.38240   0.17230   0.00000  Uiso   1.00
C104   C     0.72160   0.36710   0.16870   0.00000  Uiso   1.00
C105   C     0.70690   0.32460   0.16260   0.00000  Uiso   1.00
C106   C     0.66430   0.29710   0.15890   0.00000  Uiso   1.00
C107   C     0.63670   0.31200   0.16400   0.00000  Uiso   1.00
C108   C     0.65200   0.35470   0.17190   0.00000  Uiso   1.00
H109   H     0.58170   0.25020   0.13350   0.00000  Uiso   1.00
H110   H     0.68810   0.43790   0.19310   0.00000  Uiso   1.00
H111   H     0.75430   0.38830   0.17070   0.00000  Uiso   1.00
H112   H     0.63090   0.36640   0.17470   0.00000  Uiso   1.00
H113   H     0.76890   0.33210   0.17150   0.00000  Uiso   1.00
H114   H     0.65280   0.26420   0.15350   0.00000  Uiso   1.00
C115   C    -0.06440   0.72200   0.16010   0.00000  Uiso   1.00
C116   C    -0.04000   0.71030   0.05860   0.00000  Uiso   1.00
C117   C     0.00280   0.73360   0.06710   0.00000  Uiso   1.00
C118   C     0.02200   0.76920   0.17830   0.00000  Uiso   1.00
C119   C    -0.00220   0.78110   0.27780   0.00000  Uiso   1.00
C120   C    -0.04500   0.75760   0.27040   0.00000  Uiso   1.00
N121   N     0.06580   0.79480   0.18670   0.00000  Uiso   1.00
C122   C     0.09210   0.78250   0.15790   0.00000  Uiso   1.00
H123   H    -0.05420   0.68340  -0.02990   0.00000  Uiso   1.00
H124   H     0.02070   0.72450  -0.01660   0.00000  Uiso   1.00
H125   H     0.01240   0.80860   0.36270   0.00000  Uiso   1.00
H126   H    -0.06320   0.76690   0.35220   0.00000  Uiso   1.00
C127   C     0.32350   0.69340   0.14090   0.00000  Uiso   1.00
C128   C     0.29840   0.71420   0.13850   0.00000  Uiso   1.00
C129   C     0.31290   0.75290   0.22370   0.00000  Uiso   1.00
C130   C     0.28910   0.77200   0.22550   0.00000  Uiso   1.00
C131   C     0.25030   0.75290   0.14080   0.00000  Uiso   1.00
C132   C     0.23560   0.71440   0.05770   0.00000  Uiso   1.00
N133   N     0.22420   0.77070   0.14150   0.00000  Uiso   1.00
C134   C     0.23650   0.80970   0.16110   0.00000  Uiso   1.00
H135   H     0.34230   0.76820   0.29310   0.00000  Uiso   1.00
H136   H     0.30060   0.80100   0.29720   0.00000  Uiso   1.00
N137   N     0.24850   0.95330   0.14920   0.00000  Uiso   1.00
C138   C     0.20980   0.92720   0.17560   0.00000  Uiso   1.00
C139   C     0.25940   0.69530   0.05510   0.00000  Uiso   1.00
C140   C    -0.13340   0.71660   0.14160   0.00000  Uiso   1.00
C141   C    -0.10980   0.69720   0.15140   0.00000  Uiso   1.00
C142   C    -0.12960   1.15400   0.15520   0.00000  Uiso   1.00
C143   C     0.32750   1.13010   0.14940   0.00000  Uiso   1.00
C144   C     0.30440   1.15010   0.14430   0.00000  Uiso   1.00
C145   C     0.26720   0.99730   0.15050   0.00000  Uiso   1.00
C146   C     0.25010   1.01770   0.24670   0.00000  Uiso   1.00
C147   C     0.26960   1.06070   0.24600   0.00000  Uiso   1.00
C148   C     0.30680   1.08430   0.15080   0.00000  Uiso   1.00
C149   C     0.32400   1.06370   0.05650   0.00000  Uiso   1.00
C150   C     0.30450   1.02060   0.05770   0.00000  Uiso   1.00
H151   H     0.20570   0.69950  -0.00660   0.00000  Uiso   1.00
H152   H     0.24720   1.16590  -0.01460   0.00000  Uiso   1.00
H153   H    -0.11800   0.74980   0.13080   0.00000  Uiso   1.00
H154   H    -0.11160   1.13890   0.16910   0.00000  Uiso   1.00
H155   H     0.27130   1.13180   0.14390   0.00000  Uiso   1.00
H156   H     0.22210   1.00060   0.32570   0.00000  Uiso   1.00
H157   H     0.25580   1.07550   0.32260   0.00000  Uiso   1.00
H158   H    -0.14770   1.08080  -0.02050   0.00000  Uiso   1.00
H159   H     0.31800   1.00520  -0.01590   0.00000  Uiso   1.00
C160   C     0.19440   0.88240   0.17230   0.00000  Uiso   1.00
C161   C     0.22160   0.86710   0.16870   0.00000  Uiso   1.00
C162   C     0.20690   0.82460   0.16260   0.00000  Uiso   1.00
C163   C     0.16430   0.79710   0.15890   0.00000  Uiso   1.00
C164   C     0.13670   0.81200   0.16400   0.00000  Uiso   1.00
C165   C     0.15200   0.85470   0.17190   0.00000  Uiso   1.00
H166   H     0.08170   0.75020   0.13350   0.00000  Uiso   1.00
H167   H     0.18810   0.93790   0.19310   0.00000  Uiso   1.00
H168   H     0.25430   0.88830   0.17070   0.00000  Uiso   1.00
H169   H     0.13090   0.86640   0.17470   0.00000  Uiso   1.00
H170   H     0.26890   0.83210   0.17150   0.00000  Uiso   1.00
H171   H     0.15280   0.76420   0.15350   0.00000  Uiso   1.00
C172   C     0.43560   0.72200   0.16010   0.00000  Uiso   1.00
C173   C     0.46000   0.71030   0.05860   0.00000  Uiso   1.00
C174   C     0.50280   0.73360   0.06710   0.00000  Uiso   1.00
C175   C     0.52200   0.76920   0.17830   0.00000  Uiso   1.00
C176   C     0.49780   0.78110   0.27780   0.00000  Uiso   1.00
C177   C     0.45500   0.75760   0.27040   0.00000  Uiso   1.00
N178   N     0.56580   0.79480   0.18670   0.00000  Uiso   1.00
C179   C     0.59210   0.78250   0.15790   0.00000  Uiso   1.00
H180   H     0.44580   0.68340  -0.02990   0.00000  Uiso   1.00
H181   H     0.52070   0.72450  -0.01660   0.00000  Uiso   1.00
H182   H     0.51240   0.80860   0.36270   0.00000  Uiso   1.00
H183   H     0.43680   0.76690   0.35220   0.00000  Uiso   1.00
C184   C     0.82350   0.69340   0.14090   0.00000  Uiso   1.00
C185   C     0.79840   0.71420   0.13850   0.00000  Uiso   1.00
C186   C     0.81290   0.75290   0.22370   0.00000  Uiso   1.00
C187   C     0.78910   0.77200   0.22550   0.00000  Uiso   1.00
C188   C     0.75030   0.75290   0.14080   0.00000  Uiso   1.00
C189   C     0.73560   0.71440   0.05770   0.00000  Uiso   1.00
N190   N     0.72420   0.77070   0.14150   0.00000  Uiso   1.00
C191   C     0.73650   0.80970   0.16110   0.00000  Uiso   1.00
H192   H     0.84230   0.76820   0.29310   0.00000  Uiso   1.00
H193   H     0.80060   0.80100   0.29720   0.00000  Uiso   1.00
N194   N     0.74850   0.95330   0.14920   0.00000  Uiso   1.00
C195   C     0.70980   0.92720   0.17560   0.00000  Uiso   1.00
C196   C     0.75940   0.69530   0.05510   0.00000  Uiso   1.00
C197   C     0.36660   0.71660   0.14160   0.00000  Uiso   1.00
C198   C     0.39020   0.69720   0.15140   0.00000  Uiso   1.00
C199   C     0.37040   1.15400   0.15520   0.00000  Uiso   1.00
C200   C     0.82750   1.13010   0.14940   0.00000  Uiso   1.00
C201   C     0.80440   1.15010   0.14430   0.00000  Uiso   1.00
C202   C     0.76720   0.99730   0.15050   0.00000  Uiso   1.00
C203   C     0.75010   1.01770   0.24670   0.00000  Uiso   1.00
C204   C     0.76960   1.06070   0.24600   0.00000  Uiso   1.00
C205   C     0.80680   1.08430   0.15080   0.00000  Uiso   1.00
C206   C     0.82400   1.06370   0.05650   0.00000  Uiso   1.00
C207   C     0.80450   1.02060   0.05770   0.00000  Uiso   1.00
H208   H     0.70570   0.69950  -0.00660   0.00000  Uiso   1.00
H209   H     0.74720   1.16590  -0.01460   0.00000  Uiso   1.00
H210   H     0.38200   0.74980   0.13080   0.00000  Uiso   1.00
H211   H     0.38840   1.13890   0.16910   0.00000  Uiso   1.00
H212   H     0.77130   1.13180   0.14390   0.00000  Uiso   1.00
H213   H     0.72210   1.00060   0.32570   0.00000  Uiso   1.00
H214   H     0.75580   1.07550   0.32260   0.00000  Uiso   1.00
H215   H     0.35230   1.08080  -0.02050   0.00000  Uiso   1.00
H216   H     0.81800   1.00520  -0.01590   0.00000  Uiso   1.00
C217   C     0.69440   0.88240   0.17230   0.00000  Uiso   1.00
C218   C     0.72160   0.86710   0.16870   0.00000  Uiso   1.00
C219   C     0.70690   0.82460   0.16260   0.00000  Uiso   1.00
C220   C     0.66430   0.79710   0.15890   0.00000  Uiso   1.00
C221   C     0.63670   0.81200   0.16400   0.00000  Uiso   1.00
C222   C     0.65200   0.85470   0.17190   0.00000  Uiso   1.00
H223   H     0.58170   0.75020   0.13350   0.00000  Uiso   1.00
H224   H     0.68810   0.93790   0.19310   0.00000  Uiso   1.00
H225   H     0.75430   0.88830   0.17070   0.00000  Uiso   1.00
H226   H     0.63090   0.86640   0.17470   0.00000  Uiso   1.00
H227   H     0.76890   0.83210   0.17150   0.00000  Uiso   1.00
H228   H     0.65280   0.76420   0.15350   0.00000  Uiso   1.00
C229   C     0.07990   0.05330   0.62660   0.00000  Uiso   1.00
C230   C     0.10420   0.03970   0.53640   0.00000  Uiso   1.00
C231   C     0.14710   0.06320   0.54340   0.00000  Uiso   1.00
C232   C     0.16650   0.10080   0.64060   0.00000  Uiso   1.00
C233   C     0.14240   0.11470   0.72670   0.00000  Uiso   1.00
C234   C     0.09960   0.09110   0.72190   0.00000  Uiso   1.00
N235   N     0.21030   0.12630   0.64870   0.00000  Uiso   1.00
C236   C     0.23650   0.11340   0.63380   0.00000  Uiso   1.00
H237   H     0.09000   0.01140   0.45740   0.00000  Uiso   1.00
H238   H     0.16490   0.05250   0.46920   0.00000  Uiso   1.00
H239   H     0.15710   0.14380   0.79970   0.00000  Uiso   1.00
H240   H     0.08190   0.10220   0.79490   0.00000  Uiso   1.00
C241   C     0.46720   0.02370   0.60780   0.00000  Uiso   1.00
C242   C     0.44210   0.04430   0.60270   0.00000  Uiso   1.00
C243   C     0.45390   0.08010   0.70790   0.00000  Uiso   1.00
C244   C     0.43010   0.09920   0.70740   0.00000  Uiso   1.00
C245   C     0.39400   0.08290   0.60130   0.00000  Uiso   1.00
C246   C     0.38190   0.04700   0.49850   0.00000  Uiso   1.00
N247   N     0.36810   0.10080   0.60280   0.00000  Uiso   1.00
C248   C     0.38040   0.13940   0.63510   0.00000  Uiso   1.00
H249   H     0.48100   0.09280   0.79440   0.00000  Uiso   1.00
H250   H     0.43930   0.12590   0.79420   0.00000  Uiso   1.00
N251   N     0.39310   0.28390   0.63360   0.00000  Uiso   1.00
C252   C     0.35470   0.25770   0.66610   0.00000  Uiso   1.00
C253   C     0.40590   0.02800   0.49750   0.00000  Uiso   1.00
C254   C     0.01020   0.04710   0.60870   0.00000  Uiso   1.00
C255   C     0.03420   0.02810   0.62150   0.00000  Uiso   1.00
C256   C     0.01440   0.48490   0.63140   0.00000  Uiso   1.00
C257   C     0.47140   0.46070   0.62690   0.00000  Uiso   1.00
C258   C     0.44810   0.48050   0.61580   0.00000  Uiso   1.00
C259   C     0.41180   0.32800   0.63640   0.00000  Uiso   1.00
C260   C     0.39540   0.34840   0.73790   0.00000  Uiso   1.00
C261   C     0.41480   0.39160   0.73580   0.00000  Uiso   1.00
C262   C     0.45090   0.41500   0.63260   0.00000  Uiso   1.00
C263   C     0.46740   0.39430   0.53360   0.00000  Uiso   1.00
C264   C     0.44810   0.35130   0.53730   0.00000  Uiso   1.00
H265   H     0.35390   0.03410   0.41810   0.00000  Uiso   1.00
H266   H     0.39610   0.50060   0.41380   0.00000  Uiso   1.00
H267   H     0.02510   0.08030   0.59590   0.00000  Uiso   1.00
H268   H     0.03250   0.46990   0.64770   0.00000  Uiso   1.00
H269   H     0.41490   0.46220   0.61410   0.00000  Uiso   1.00
H270   H     0.36820   0.33130   0.82160   0.00000  Uiso   1.00
H271   H     0.40200   0.40670   0.81720   0.00000  Uiso   1.00
H272   H    -0.00520   0.41130   0.45090   0.00000  Uiso   1.00
H273   H     0.46110   0.33580   0.46020   0.00000  Uiso   1.00
C274   C     0.33910   0.21290   0.65460   0.00000  Uiso   1.00
C275   C     0.36610   0.19730   0.65050   0.00000  Uiso   1.00
C276   C     0.35110   0.15470   0.64030   0.00000  Uiso   1.00
C277   C     0.30860   0.12760   0.63690   0.00000  Uiso   1.00
C278   C     0.28110   0.14260   0.63980   0.00000  Uiso   1.00
C279   C     0.29670   0.18540   0.64750   0.00000  Uiso   1.00
H280   H     0.22590   0.08070   0.62200   0.00000  Uiso   1.00
H281   H     0.33300   0.26820   0.69150   0.00000  Uiso   1.00
H282   H     0.39890   0.21830   0.65560   0.00000  Uiso   1.00
H283   H     0.27590   0.19740   0.64750   0.00000  Uiso   1.00
H284   H     0.41270   0.16140   0.65290   0.00000  Uiso   1.00
H285   H     0.29690   0.09460   0.63220   0.00000  Uiso   1.00
C286   C     0.57990   0.05330   0.62660   0.00000  Uiso   1.00
C287   C     0.60420   0.03970   0.53640   0.00000  Uiso   1.00
C288   C     0.64710   0.06320   0.54340   0.00000  Uiso   1.00
C289   C     0.66650   0.10080   0.64060   0.00000  Uiso   1.00
C290   C     0.64240   0.11470   0.72670   0.00000  Uiso   1.00
C291   C     0.59960   0.09110   0.72190   0.00000  Uiso   1.00
N292   N     0.71030   0.12630   0.64870   0.00000  Uiso   1.00
C293   C     0.73650   0.11340   0.63380   0.00000  Uiso   1.00
H294   H     0.59000   0.01140   0.45740   0.00000  Uiso   1.00
H295   H     0.66490   0.05250   0.46920   0.00000  Uiso   1.00
H296   H     0.65710   0.14380   0.79970   0.00000  Uiso   1.00
H297   H     0.58190   0.10220   0.79490   0.00000  Uiso   1.00
C298   C     0.96720   0.02370   0.60780   0.00000  Uiso   1.00
C299   C     0.94210   0.04430   0.60270   0.00000  Uiso   1.00
C300   C     0.95390   0.08010   0.70790   0.00000  Uiso   1.00
C301   C     0.93010   0.09920   0.70740   0.00000  Uiso   1.00
C302   C     0.89400   0.08290   0.60130   0.00000  Uiso   1.00
C303   C     0.88190   0.04700   0.49850   0.00000  Uiso   1.00
N304   N     0.86810   0.10080   0.60280   0.00000  Uiso   1.00
C305   C     0.88040   0.13940   0.63510   0.00000  Uiso   1.00
H306   H     0.98100   0.09280   0.79440   0.00000  Uiso   1.00
H307   H     0.93930   0.12590   0.79420   0.00000  Uiso   1.00
N308   N     0.89310   0.28390   0.63360   0.00000  Uiso   1.00
C309   C     0.85470   0.25770   0.66610   0.00000  Uiso   1.00
C310   C     0.90590   0.02800   0.49750   0.00000  Uiso   1.00
C311   C     0.51020   0.04710   0.60870   0.00000  Uiso   1.00
C312   C     0.53420   0.02810   0.62150   0.00000  Uiso   1.00
C313   C     0.51440   0.48490   0.63140   0.00000  Uiso   1.00
C314   C     0.97140   0.46070   0.62690   0.00000  Uiso   1.00
C315   C     0.94810   0.48050   0.61580   0.00000  Uiso   1.00
C316   C     0.91180   0.32800   0.63640   0.00000  Uiso   1.00
C317   C     0.89540   0.34840   0.73790   0.00000  Uiso   1.00
C318   C     0.91480   0.39160   0.73580   0.00000  Uiso   1.00
C319   C     0.95090   0.41500   0.63260   0.00000  Uiso   1.00
C320   C     0.96740   0.39430   0.53360   0.00000  Uiso   1.00
C321   C     0.94810   0.35130   0.53730   0.00000  Uiso   1.00
H322   H     0.85390   0.03410   0.41810   0.00000  Uiso   1.00
H323   H     0.89610   0.50060   0.41380   0.00000  Uiso   1.00
H324   H     0.52510   0.08030   0.59590   0.00000  Uiso   1.00
H325   H     0.53250   0.46990   0.64770   0.00000  Uiso   1.00
H326   H     0.91490   0.46220   0.61410   0.00000  Uiso   1.00
H327   H     0.86820   0.33130   0.82160   0.00000  Uiso   1.00
H328   H     0.90200   0.40670   0.81720   0.00000  Uiso   1.00
H329   H     0.49490   0.41130   0.45090   0.00000  Uiso   1.00
H330   H     0.96110   0.33580   0.46020   0.00000  Uiso   1.00
C331   C     0.83910   0.21290   0.65460   0.00000  Uiso   1.00
C332   C     0.86610   0.19730   0.65050   0.00000  Uiso   1.00
C333   C     0.85110   0.15470   0.64030   0.00000  Uiso   1.00
C334   C     0.80860   0.12760   0.63690   0.00000  Uiso   1.00
C335   C     0.78110   0.14260   0.63980   0.00000  Uiso   1.00
C336   C     0.79670   0.18540   0.64750   0.00000  Uiso   1.00
H337   H     0.72590   0.08070   0.62200   0.00000  Uiso   1.00
H338   H     0.83300   0.26820   0.69150   0.00000  Uiso   1.00
H339   H     0.89890   0.21830   0.65560   0.00000  Uiso   1.00
H340   H     0.77590   0.19740   0.64750   0.00000  Uiso   1.00
H341   H     0.91270   0.16140   0.65290   0.00000  Uiso   1.00
H342   H     0.79690   0.09460   0.63220   0.00000  Uiso   1.00
C343   C     0.07990   0.55330   0.62660   0.00000  Uiso   1.00
C344   C     0.10420   0.53970   0.53640   0.00000  Uiso   1.00
C345   C     0.14710   0.56320   0.54340   0.00000  Uiso   1.00
C346   C     0.16650   0.60080   0.64060   0.00000  Uiso   1.00
C347   C     0.14240   0.61470   0.72670   0.00000  Uiso   1.00
C348   C     0.09960   0.59110   0.72190   0.00000  Uiso   1.00
N349   N     0.21030   0.62630   0.64870   0.00000  Uiso   1.00
C350   C     0.23650   0.61340   0.63380   0.00000  Uiso   1.00
H351   H     0.09000   0.51140   0.45740   0.00000  Uiso   1.00
H352   H     0.16490   0.55250   0.46920   0.00000  Uiso   1.00
H353   H     0.15710   0.64380   0.79970   0.00000  Uiso   1.00
H354   H     0.08190   0.60220   0.79490   0.00000  Uiso   1.00
C355   C     0.46720   0.52370   0.60780   0.00000  Uiso   1.00
C356   C     0.44210   0.54430   0.60270   0.00000  Uiso   1.00
C357   C     0.45390   0.58010   0.70790   0.00000  Uiso   1.00
C358   C     0.43010   0.59920   0.70740   0.00000  Uiso   1.00
C359   C     0.39400   0.58290   0.60130   0.00000  Uiso   1.00
C360   C     0.38190   0.54700   0.49850   0.00000  Uiso   1.00
N361   N     0.36810   0.60080   0.60280   0.00000  Uiso   1.00
C362   C     0.38040   0.63940   0.63510   0.00000  Uiso   1.00
H363   H     0.48100   0.59280   0.79440   0.00000  Uiso   1.00
H364   H     0.43930   0.62590   0.79420   0.00000  Uiso   1.00
N365   N     0.39310   0.78390   0.63360   0.00000  Uiso   1.00
C366   C     0.35470   0.75770   0.66610   0.00000  Uiso   1.00
C367   C     0.40590   0.52800   0.49750   0.00000  Uiso   1.00
C368   C     0.01020   0.54710   0.60870   0.00000  Uiso   1.00
C369   C     0.03420   0.52810   0.62150   0.00000  Uiso   1.00
C370   C     0.01440   0.98490   0.63140   0.00000  Uiso   1.00
C371   C     0.47140   0.96070   0.62690   0.00000  Uiso   1.00
C372   C     0.44810   0.98050   0.61580   0.00000  Uiso   1.00
C373   C     0.41180   0.82800   0.63640   0.00000  Uiso   1.00
C374   C     0.39540   0.84840   0.73790   0.00000  Uiso   1.00
C375   C     0.41480   0.89160   0.73580   0.00000  Uiso   1.00
C376   C     0.45090   0.91500   0.63260   0.00000  Uiso   1.00
C377   C     0.46740   0.89430   0.53360   0.00000  Uiso   1.00
C378   C     0.44810   0.85130   0.53730   0.00000  Uiso   1.00
H379   H     0.35390   0.53410   0.41810   0.00000  Uiso   1.00
H380   H     0.39610   1.00060   0.41380   0.00000  Uiso   1.00
H381   H     0.02510   0.58030   0.59590   0.00000  Uiso   1.00
H382   H     0.03250   0.96990   0.64770   0.00000  Uiso   1.00
H383   H     0.41490   0.96220   0.61410   0.00000  Uiso   1.00
H384   H     0.36820   0.83130   0.82160   0.00000  Uiso   1.00
H385   H     0.40200   0.90670   0.81720   0.00000  Uiso   1.00
H386   H    -0.00520   0.91130   0.45090   0.00000  Uiso   1.00
H387   H     0.46110   0.83580   0.46020   0.00000  Uiso   1.00
C388   C     0.33910   0.71290   0.65460   0.00000  Uiso   1.00
C389   C     0.36610   0.69730   0.65050   0.00000  Uiso   1.00
C390   C     0.35110   0.65470   0.64030   0.00000  Uiso   1.00
C391   C     0.30860   0.62760   0.63690   0.00000  Uiso   1.00
C392   C     0.28110   0.64260   0.63980   0.00000  Uiso   1.00
C393   C     0.29670   0.68540   0.64750   0.00000  Uiso   1.00
H394   H     0.22590   0.58070   0.62200   0.00000  Uiso   1.00
H395   H     0.33300   0.76820   0.69150   0.00000  Uiso   1.00
H396   H     0.39890   0.71830   0.65560   0.00000  Uiso   1.00
H397   H     0.27590   0.69740   0.64750   0.00000  Uiso   1.00
H398   H     0.41270   0.66140   0.65290   0.00000  Uiso   1.00
H399   H     0.29690   0.59460   0.63220   0.00000  Uiso   1.00
C400   C     0.57990   0.55330   0.62660   0.00000  Uiso   1.00
C401   C     0.60420   0.53970   0.53640   0.00000  Uiso   1.00
C402   C     0.64710   0.56320   0.54340   0.00000  Uiso   1.00
C403   C     0.66650   0.60080   0.64060   0.00000  Uiso   1.00
C404   C     0.64240   0.61470   0.72670   0.00000  Uiso   1.00
C405   C     0.59960   0.59110   0.72190   0.00000  Uiso   1.00
N406   N     0.71030   0.62630   0.64870   0.00000  Uiso   1.00
C407   C     0.73650   0.61340   0.63380   0.00000  Uiso   1.00
H408   H     0.59000   0.51140   0.45740   0.00000  Uiso   1.00
H409   H     0.66490   0.55250   0.46920   0.00000  Uiso   1.00
H410   H     0.65710   0.64380   0.79970   0.00000  Uiso   1.00
H411   H     0.58190   0.60220   0.79490   0.00000  Uiso   1.00
C412   C     0.96720   0.52370   0.60780   0.00000  Uiso   1.00
C413   C     0.94210   0.54430   0.60270   0.00000  Uiso   1.00
C414   C     0.95390   0.58010   0.70790   0.00000  Uiso   1.00
C415   C     0.93010   0.59920   0.70740   0.00000  Uiso   1.00
C416   C     0.89400   0.58290   0.60130   0.00000  Uiso   1.00
C417   C     0.88190   0.54700   0.49850   0.00000  Uiso   1.00
N418   N     0.86810   0.60080   0.60280   0.00000  Uiso   1.00
C419   C     0.88040   0.63940   0.63510   0.00000  Uiso   1.00
H420   H     0.98100   0.59280   0.79440   0.00000  Uiso   1.00
H421   H     0.93930   0.62590   0.79420   0.00000  Uiso   1.00
N422   N     0.89310   0.78390   0.63360   0.00000  Uiso   1.00
C423   C     0.85470   0.75770   0.66610   0.00000  Uiso   1.00
C424   C     0.90590   0.52800   0.49750   0.00000  Uiso   1.00
C425   C     0.51020   0.54710   0.60870   0.00000  Uiso   1.00
C426   C     0.53420   0.52810   0.62150   0.00000  Uiso   1.00
C427   C     0.51440   0.98490   0.63140   0.00000  Uiso   1.00
C428   C     0.97140   0.96070   0.62690   0.00000  Uiso   1.00
C429   C     0.94810   0.98050   0.61580   0.00000  Uiso   1.00
C430   C     0.91180   0.82800   0.63640   0.00000  Uiso   1.00
C431   C     0.89540   0.84840   0.73790   0.00000  Uiso   1.00
C432   C     0.91480   0.89160   0.73580   0.00000  Uiso   1.00
C433   C     0.95090   0.91500   0.63260   0.00000  Uiso   1.00
C434   C     0.96740   0.89430   0.53360   0.00000  Uiso   1.00
C435   C     0.94810   0.85130   0.53730   0.00000  Uiso   1.00
H436   H     0.85390   0.53410   0.41810   0.00000  Uiso   1.00
H437   H     0.89610   1.00060   0.41380   0.00000  Uiso   1.00
H438   H     0.52510   0.58030   0.59590   0.00000  Uiso   1.00
H439   H     0.53250   0.96990   0.64770   0.00000  Uiso   1.00
H440   H     0.91490   0.96220   0.61410   0.00000  Uiso   1.00
H441   H     0.86820   0.83130   0.82160   0.00000  Uiso   1.00
H442   H     0.90200   0.90670   0.81720   0.00000  Uiso   1.00
H443   H     0.49490   0.91130   0.45090   0.00000  Uiso   1.00
H444   H     0.96110   0.83580   0.46020   0.00000  Uiso   1.00
C445   C     0.83910   0.71290   0.65460   0.00000  Uiso   1.00
C446   C     0.86610   0.69730   0.65050   0.00000  Uiso   1.00
C447   C     0.85110   0.65470   0.64030   0.00000  Uiso   1.00
C448   C     0.80860   0.62760   0.63690   0.00000  Uiso   1.00
C449   C     0.78110   0.64260   0.63980   0.00000  Uiso   1.00
C450   C     0.79670   0.68540   0.64750   0.00000  Uiso   1.00
H451   H     0.72590   0.58070   0.62200   0.00000  Uiso   1.00
H452   H     0.83300   0.76820   0.69150   0.00000  Uiso   1.00
H453   H     0.89890   0.71830   0.65560   0.00000  Uiso   1.00
H454   H     0.77590   0.69740   0.64750   0.00000  Uiso   1.00
H455   H     0.91270   0.66140   0.65290   0.00000  Uiso   1.00
H456   H     0.79690   0.59460   0.63220   0.00000  Uiso   1.00
loop_
_geom_bond_atom_site_label_1
_geom_bond_atom_site_label_2
_geom_bond_distance
_geom_bond_site_symmetry_2
_ccdc_geom_bond_type
C1     C2      1.406   .     D
C1     C6      1.404   .     S
C1     C27     1.484   .     S
C2     C3      1.399   .     S
C2     H9      1.082   .     S
C3     C4      1.407   .     D
C3     H10     1.080   .     S
C4     C5      1.397   .     S
C4     N7      1.436   .     S
C5     C6      1.399   .     D
C5     H11     1.083   .     S
C6     H12     1.086   .     S
N7     C8      1.301   .     D
C8     C50     1.479   .     S
C8     H52     1.083   .     S
C13    C14     1.495   .     S
C13    C83     1.407   .     S
C13    C144    1.407   1_545 D
C14    C15     1.409   .     S
C14    C25     1.407   .     D
C15    C16     1.399   .     D
C15    H21     1.082   .     S
C16    C17     1.405   .     S
C16    H22     1.079   .     S
C17    C18     1.395   .     D
C17    N19     1.437   .     S
C18    C25     1.399   .     S
C18    H37     1.080   .     S
N19    C20     1.300   .     D
C20    C48     1.475   .     S
C20    H56     1.084   .     S
N23    C24     1.300   .     D
N23    C31     1.432   .     S
C24    C46     1.476   .     S
C24    H53     1.082   .     S
C25    H152    1.082   1_545 S
C26    C27     1.403   .     D
C26    H39     1.080   .     S
C26    C70     1.407   1_455 S
C27    C142    1.403   1_545 S
C28    H40     1.083   .     S
C28    C141    1.403   .     D
C28    C86     1.402   1_455 S
C29    C30     1.404   .     D
C29    C34     1.487   .     S
C29    C85     1.402   .     S
C30    H41     1.081   .     S
C30    C127    1.407   .     S
C31    C32     1.404   .     D
C31    C36     1.399   .     S
C32    C33     1.396   .     S
C32    H42     1.083   .     S
C33    C34     1.406   .     D
C33    H43     1.082   .     S
C34    C35     1.406   .     S
C35    C36     1.400   .     D
C35    H101    1.083   .     S
C36    H45     1.080   .     S
H38    C139    1.082   .     S
H44    C92     1.083   1_455 S
C46    C47     1.402   .     D
C46    C51     1.403   .     S
C47    C48     1.400   .     S
C47    H54     1.081   .     S
C48    C49     1.408   .     D
C49    C50     1.405   .     S
C49    H57     1.083   .     S
C50    C51     1.404   .     D
C51    H55     1.082   .     S
C58    C59     1.406   .     D
C58    C63     1.404   .     S
C58    C84     1.484   .     S
C59    C60     1.399   .     S
C59    H66     1.082   .     S
C60    C61     1.407   .     D
C60    H67     1.080   .     S
C61    C62     1.397   .     S
C61    N64     1.436   .     S
C62    C63     1.399   .     D
C62    H68     1.083   .     S
C63    H69     1.086   .     S
N64    C65     1.301   .     D
C65    C107    1.479   .     S
C65    H109    1.083   .     S
C70    C71     1.495   .     S
C70    C26     1.407   1_655 S
C70    C201    1.407   1_545 D
C71    C72     1.409   .     S
C71    C82     1.407   .     D
C72    C73     1.399   .     D
C72    H78     1.082   .     S
C73    C74     1.405   .     S
C73    H79     1.079   .     S
C74    C75     1.395   .     D
C74    N76     1.437   .     S
C75    C82     1.399   .     S
C75    H94     1.080   .     S
N76    C77     1.300   .     D
C77    C105    1.475   .     S
C77    H113    1.084   .     S
N80    C81     1.300   .     D
N80    C88     1.432   .     S
C81    C103    1.476   .     S
C81    H110    1.082   .     S
C82    H209    1.082   1_545 S
C83    C84     1.403   .     D
C83    H96     1.080   .     S
C84    C199    1.403   1_545 S
C85    H97     1.083   .     S
C85    C198    1.403   .     D
C86    C87     1.404   .     D
C86    C91     1.487   .     S
C86    C28     1.402   1_655 S
C87    H98     1.081   .     S
C87    C184    1.407   .     S
C88    C89     1.404   .     D
C88    C93     1.399   .     S
C89    C90     1.396   .     S
C89    H99     1.083   .     S
C90    C91     1.406   .     D
C90    H100    1.082   .     S
C91    C92     1.406   .     S
C92    C93     1.400   .     D
C92    H44     1.083   1_655 S
C93    H102    1.080   .     S
H95    C196    1.082   .     S
C103   C104    1.402   .     S
C103   C108    1.403   .     D
C104   C105    1.400   .     D
C104   H111    1.081   .     S
C105   C106    1.408   .     S
C106   C107    1.405   .     D
C106   H114    1.083   .     S
C107   C108    1.404   .     S
C108   H112    1.082   .     S
C115   C116    1.406   .     D
C115   C120    1.404   .     S
C115   C141    1.484   .     S
C116   C117    1.399   .     S
C116   H123    1.082   .     S
C117   C118    1.407   .     D
C117   H124    1.080   .     S
C118   C119    1.397   .     S
C118   N121    1.436   .     S
C119   C120    1.399   .     D
C119   H125    1.083   .     S
C120   H126    1.086   .     S
N121   C122    1.301   .     D
C122   C164    1.479   .     S
C122   H166    1.083   .     S
C127   C128    1.495   .     S
C127   C197    1.407   .     D
C128   C129    1.409   .     S
C128   C139    1.407   .     D
C129   C130    1.399   .     D
C129   H135    1.082   .     S
C130   C131    1.405   .     S
C130   H136    1.079   .     S
C131   C132    1.395   .     D
C131   N133    1.437   .     S
C132   C139    1.399   .     S
C132   H151    1.080   .     S
N133   C134    1.300   .     D
C134   C162    1.475   .     S
C134   H170    1.084   .     S
N137   C138    1.300   .     D
N137   C145    1.432   .     S
C138   C160    1.476   .     S
C138   H167    1.082   .     S
C140   C141    1.403   .     S
C140   H153    1.080   .     S
C140   C184    1.407   1_455 D
C142   H154    1.083   .     S
C142   C27     1.403   1_565 S
C142   C200    1.402   1_455 D
C143   C144    1.404   .     S
C143   C148    1.487   .     S
C143   C199    1.402   .     D
C144   H155    1.081   .     S
C144   C13     1.407   1_565 D
C145   C146    1.404   .     S
C145   C150    1.399   .     D
C146   C147    1.396   .     D
C146   H156    1.083   .     S
C147   C148    1.406   .     S
C147   H157    1.082   .     S
C148   C149    1.406   .     D
C149   C150    1.400   .     S
C149   H215    1.083   .     S
C150   H159    1.080   .     S
H152   C25     1.082   1_565 S
H158   C206    1.083   1_455 S
C160   C161    1.402   .     S
C160   C165    1.403   .     D
C161   C162    1.400   .     D
C161   H168    1.081   .     S
C162   C163    1.408   .     S
C163   C164    1.405   .     D
C163   H171    1.083   .     S
C164   C165    1.404   .     S
C165   H169    1.082   .     S
C172   C173    1.406   .     D
C172   C177    1.404   .     S
C172   C198    1.484   .     S
C173   C174    1.399   .     S
C173   H180    1.082   .     S
C174   C175    1.407   .     D
C174   H181    1.080   .     S
C175   C176    1.397   .     S
C175   N178    1.436   .     S
C176   C177    1.399   .     D
C176   H182    1.083   .     S
C177   H183    1.086   .     S
N178   C179    1.301   .     D
C179   C221    1.479   .     S
C179   H223    1.083   .     S
C184   C185    1.495   .     S
C184   C140    1.407   1_655 D
C185   C186    1.409   .     D
C185   C196    1.407   .     S
C186   C187    1.399   .     S
C186   H192    1.082   .     S
C187   C188    1.405   .     D
C187   H193    1.079   .     S
C188   C189    1.395   .     S
C188   N190    1.437   .     S
C189   C196    1.399   .     D
C189   H208    1.080   .     S
N190   C191    1.300   .     D
C191   C219    1.475   .     S
C191   H227    1.084   .     S
N194   C195    1.300   .     D
N194   C202    1.432   .     S
C195   C217    1.476   .     S
C195   H224    1.082   .     S
C197   C198    1.403   .     S
C197   H210    1.080   .     S
C199   H211    1.083   .     S
C199   C84     1.403   1_565 S
C200   C201    1.404   .     S
C200   C205    1.487   .     S
C200   C142    1.402   1_655 D
C201   H212    1.081   .     S
C201   C70     1.407   1_565 D
C202   C203    1.404   .     D
C202   C207    1.399   .     S
C203   C204    1.396   .     S
C203   H213    1.083   .     S
C204   C205    1.406   .     D
C204   H214    1.082   .     S
C205   C206    1.406   .     S
C206   C207    1.400   .     D
C206   H158    1.083   1_655 S
C207   H216    1.080   .     S
H209   C82     1.082   1_565 S
C217   C218    1.402   .     S
C217   C222    1.403   .     D
C218   C219    1.400   .     D
C218   H225    1.081   .     S
C219   C220    1.408   .     S
C220   C221    1.405   .     D
C220   H228    1.083   .     S
C221   C222    1.404   .     S
C222   H226    1.082   .     S
C229   C230    1.410   .     D
C229   C234    1.406   .     S
C229   C255    1.493   .     S
C230   C231    1.402   .     S
C230   H237    1.081   .     S
C231   C232    1.407   .     D
C231   H238    1.080   .     S
C232   C233    1.398   .     S
C232   N235    1.435   .     S
C233   C234    1.398   .     D
C233   H239    1.081   .     S
C234   H240    1.083   .     S
N235   C236    1.302   .     D
C236   C278    1.477   .     S
C236   H280    1.085   .     S
C241   C242    1.490   .     S
C241   C311    1.404   .     S
C241   C372    1.405   1_545 D
C242   C243    1.406   .     S
C242   C253    1.406   .     D
C243   C244    1.398   .     D
C243   H249    1.083   .     S
C244   C245    1.406   .     S
C244   H250    1.080   .     S
C245   C246    1.398   .     D
C245   N247    1.433   .     S
C246   C253    1.402   .     S
C246   H265    1.083   .     S
N247   C248    1.299   .     D
C248   C276    1.476   .     S
C248   H284    1.083   .     S
N251   C252    1.300   .     D
N251   C259    1.435   .     S
C252   C274    1.477   .     S
C252   H281    1.085   .     S
C253   H380    1.084   1_545 S
C254   C255    1.405   .     S
C254   H267    1.082   .     S
C254   C298    1.404   1_455 D
C255   C370    1.404   1_545 D
C256   H268    1.085   .     S
C256   C369    1.404   .     S
C256   C314    1.406   1_455 D
C257   C258    1.406   .     S
C257   C262    1.485   .     S
C257   C313    1.406   .     D
C258   H269    1.084   .     S
C258   C355    1.405   .     D
C259   C260    1.405   .     D
C259   C264    1.396   .     S
C260   C261    1.403   .     S
C260   H270    1.081   .     S
C261   C262    1.407   .     D
C261   H271    1.082   .     S
C262   C263    1.407   .     S
C263   C264    1.397   .     D
C263   H329    1.084   .     S
C264   H273    1.082   .     S
H266   C367    1.084   .     S
H272   C320    1.081   1_455 S
C274   C275    1.403   .     S
C274   C279    1.403   .     D
C275   C276    1.403   .     D
C275   H282    1.084   .     S
C276   C277    1.403   .     S
C277   C278    1.404   .     D
C277   H285    1.085   .     S
C278   C279    1.405   .     S
C279   H283    1.080   .     S
C286   C287    1.410   .     D
C286   C291    1.406   .     S
C286   C312    1.493   .     S
C287   C288    1.402   .     S
C287   H294    1.081   .     S
C288   C289    1.407   .     D
C288   H295    1.080   .     S
C289   C290    1.398   .     S
C289   N292    1.435   .     S
C290   C291    1.398   .     D
C290   H296    1.081   .     S
C291   H297    1.083   .     S
N292   C293    1.302   .     D
C293   C335    1.477   .     S
C293   H337    1.085   .     S
C298   C299    1.490   .     S
C298   C254    1.404   1_655 D
C298   C429    1.405   1_545 S
C299   C300    1.406   .     S
C299   C310    1.406   .     D
C300   C301    1.398   .     D
C300   H306    1.083   .     S
C301   C302    1.406   .     S
C301   H307    1.080   .     S
C302   C303    1.398   .     D
C302   N304    1.433   .     S
C303   C310    1.402   .     S
C303   H322    1.083   .     S
N304   C305    1.299   .     D
C305   C333    1.476   .     S
C305   H341    1.083   .     S
N308   C309    1.300   .     D
N308   C316    1.435   .     S
C309   C331    1.477   .     S
C309   H338    1.085   .     S
C310   H437    1.084   1_545 S
C311   C312    1.405   .     D
C311   H324    1.082   .     S
C312   C427    1.404   1_545 S
C313   H325    1.085   .     S
C313   C426    1.404   .     S
C314   C315    1.406   .     S
C314   C319    1.485   .     S
C314   C256    1.406   1_655 D
C315   H326    1.084   .     S
C315   C412    1.405   .     D
C316   C317    1.405   .     S
C316   C321    1.396   .     D
C317   C318    1.403   .     D
C317   H327    1.081   .     S
C318   C319    1.407   .     S
C318   H328    1.082   .     S
C319   C320    1.407   .     D
C320   C321    1.397   .     S
C320   H272    1.081   1_655 S
C321   H330    1.082   .     S
H323   C424    1.084   .     S
C331   C332    1.403   .     S
C331   C336    1.403   .     D
C332   C333    1.403   .     D
C332   H339    1.084   .     S
C333   C334    1.403   .     S
C334   C335    1.404   .     D
C334   H342    1.085   .     S
C335   C336    1.405   .     S
C336   H340    1.080   .     S
C343   C344    1.410   .     D
C343   C348    1.406   .     S
C343   C369    1.493   .     S
C344   C345    1.402   .     S
C344   H351    1.081   .     S
C345   C346    1.407   .     D
C345   H352    1.080   .     S
C346   C347    1.398   .     S
C346   N349    1.435   .     S
C347   C348    1.398   .     D
C347   H353    1.081   .     S
C348   H354    1.083   .     S
N349   C350    1.302   .     D
C350   C392    1.477   .     S
C350   H394    1.085   .     S
C355   C356    1.490   .     S
C355   C425    1.404   .     S
C356   C357    1.406   .     D
C356   C367    1.406   .     S
C357   C358    1.398   .     S
C357   H363    1.083   .     S
C358   C359    1.406   .     D
C358   H364    1.080   .     S
C359   C360    1.398   .     S
C359   N361    1.433   .     S
C360   C367    1.402   .     D
C360   H379    1.083   .     S
N361   C362    1.299   .     D
C362   C390    1.476   .     S
C362   H398    1.083   .     S
N365   C366    1.300   .     D
N365   C373    1.435   .     S
C366   C388    1.477   .     S
C366   H395    1.085   .     S
C368   C369    1.405   .     D
C368   H381    1.082   .     S
C368   C412    1.404   1_455 S
C370   H382    1.085   .     S
C370   C255    1.404   1_565 D
C370   C428    1.406   1_455 S
C371   C372    1.406   .     S
C371   C376    1.485   .     S
C371   C427    1.406   .     D
C372   H383    1.084   .     S
C372   C241    1.405   1_565 D
C373   C374    1.405   .     D
C373   C378    1.396   .     S
C374   C375    1.403   .     S
C374   H384    1.081   .     S
C375   C376    1.407   .     D
C375   H385    1.082   .     S
C376   C377    1.407   .     S
C377   C378    1.397   .     D
C377   H443    1.084   .     S
C378   H387    1.082   .     S
H380   C253    1.084   1_565 S
H386   C434    1.081   1_455 S
C388   C389    1.403   .     S
C388   C393    1.403   .     D
C389   C390    1.403   .     D
C389   H396    1.084   .     S
C390   C391    1.403   .     S
C391   C392    1.404   .     D
C391   H399    1.085   .     S
C392   C393    1.405   .     S
C393   H397    1.080   .     S
C400   C401    1.410   .     S
C400   C405    1.406   .     D
C400   C426    1.493   .     S
C401   C402    1.402   .     D
C401   H408    1.081   .     S
C402   C403    1.407   .     S
C402   H409    1.080   .     S
C403   C404    1.398   .     D
C403   N406    1.435   .     S
C404   C405    1.398   .     S
C404   H410    1.081   .     S
C405   H411    1.083   .     S
N406   C407    1.302   .     D
C407   C449    1.477   .     S
C407   H451    1.085   .     S
C412   C413    1.490   .     S
C412   C368    1.404   1_655 S
C413   C414    1.406   .     D
C413   C424    1.406   .     S
C414   C415    1.398   .     S
C414   H420    1.083   .     S
C415   C416    1.406   .     D
C415   H421    1.080   .     S
C416   C417    1.398   .     S
C416   N418    1.433   .     S
C417   C424    1.402   .     D
C417   H436    1.083   .     S
N418   C419    1.299   .     D
C419   C447    1.476   .     S
C419   H455    1.083   .     S
N422   C423    1.300   .     D
N422   C430    1.435   .     S
C423   C445    1.477   .     S
C423   H452    1.085   .     S
C425   C426    1.405   .     D
C425   H438    1.082   .     S
C427   H439    1.085   .     S
C427   C312    1.404   1_565 S
C428   C429    1.406   .     D
C428   C433    1.485   .     S
C428   C370    1.406   1_655 S
C429   H440    1.084   .     S
C429   C298    1.405   1_565 S
C430   C431    1.405   .     D
C430   C435    1.396   .     S
C431   C432    1.403   .     S
C431   H441    1.081   .     S
C432   C433    1.407   .     D
C432   H442    1.082   .     S
C433   C434    1.407   .     S
C434   C435    1.397   .     D
C434   H386    1.081   1_655 S
C435   H444    1.082   .     S
H437   C310    1.084   1_565 S
C445   C446    1.403   .     D
C445   C450    1.403   .     S
C446   C447    1.403   .     S
C446   H453    1.084   .     S
C447   C448    1.403   .     D
C448   C449    1.404   .     S
C448   H456    1.085   .     S
C449   C450    1.405   .     D
C450   H454    1.080   .     S
